Microsoft (R) COFF/PE Dumper Version 14.29.30137.0
Copyright (C) Microsoft Corporation.  All rights reserved.


Dump of file C:\Windows\WinSxS\amd64_microsoft-windows-wow64_31bf3856ad364e35_10.0.22000.1_none_be6965afdc184539\wow64base.dll

File Type: DLL

  Image has the following dependencies:

    ntdll.dll
    wow64.dll

  Section contains the following exports for wow64base.dll

    00000000 characteristics
     5C399A6 time date stamp
        0.00 version
           1 ordinal base
           1 number of functions
           1 number of names

    ordinal hint RVA      name

          1    0 00004090 sdwhbase

  Section contains the following imports:

    ntdll.dll
             180004278 Import Address Table
             180004BB8 Import Name Table
                     0 time date stamp
                     0 Index of first forwarder reference

                         8E7 __C_specific_handler
                          6D LdrDisableThreadCalloutsForDll
                         27E NtTerminateProcess
                         2FE RtlCaptureContext
                         4FE RtlLookupFunctionEntry
                         642 RtlVirtualUnwind
                         60C RtlUnhandledExceptionFilter
                          1A CsrClientCallServer
                          17 CsrCaptureMessageMultiUnicodeStringsInPlace
                          23 DbgPrintEx
                         373 RtlDecodeSystemPointer
                         3B8 RtlEncodeSystemPointer
                          80 LdrGetProcedureAddress
                          14 CsrAllocateCaptureBuffer
                          15 CsrAllocateMessagePointer
                         62A RtlUpcaseUnicodeString
                         342 RtlCopyUnicodeString
                         481 RtlInitUnicodeString
                          1C CsrFreeCaptureBuffer
                          16 CsrCaptureMessageBuffer
                          18 CsrCaptureMessageString
                         353 RtlCreateProcessParametersEx
                         399 RtlDestroyProcessParameters
                         151 NtDeviceIoControlFile
                         2E9 RtlAppendUnicodeToString
                         2E8 RtlAppendUnicodeStringToString
                          8A LdrLoadDll
                          67 LdrAddRefDll
                         95A memcpy

    wow64.dll
             180004368 Import Address Table
             180004CA8 Import Name Table
                     0 time date stamp
                     0 Index of first forwarder reference

                           0 RedirectDosPath
                           2 RedirectObjectName
                           1 RedirectDosPathUnicode

  Summary

        1000 .data
        1000 .pdata
        1000 .rdata
        1000 .reloc
        3000 .text
