Microsoft (R) COFF/PE Dumper Version 14.29.30137.0
Copyright (C) Microsoft Corporation.  All rights reserved.


Dump of file C:\Windows\WinSxS\amd64_microsoft-windows-a..ence-mitigations-c3_31bf3856ad364e35_10.0.22000.1165_none_856a6aea29e06f5d\AcGenral.dll

File Type: DLL

  Image has the following dependencies:

    apphelp.dll
    msvcrt.dll
    ntdll.dll
    api-ms-win-service-core-l1-1-1.dll
    api-ms-win-service-winsvc-l1-1-0.dll
    api-ms-win-service-management-l1-1-0.dll
    api-ms-win-service-management-l2-1-0.dll
    api-ms-win-eventing-provider-l1-1-0.dll
    SHLWAPI.dll
    USER32.dll
    ole32.dll
    SHELL32.dll
    USERENV.dll
    KERNEL32.dll
    ADVAPI32.dll
    RPCRT4.dll
    MPR.dll
    SspiCli.dll
    api-ms-win-core-apiquery-l1-1-0.dll

  Image has the following delay load dependencies:

    ext-ms-win-ntuser-windowstation-l1-1-0.dll
    pcacli.dll

  Section contains the following exports for AcGenral.dll

    00000000 characteristics
    D4F6D033 time date stamp
        0.00 version
           1 ordinal base
           2 number of functions
           2 number of names

    ordinal hint RVA      name

          1    0 0000CF70 GetHookAPIs
          2    1 0000D020 NotifyShims

  Section contains the following imports:

    apphelp.dll
             1800488A8 Import Address Table
             18005F4C0 Import Name Table
                     0 time date stamp
                     0 Index of first forwarder reference

                          BB SdbResolveDatabase
                          9B SdbOpenLocalDatabase
                          54 SdbFindFirstTag
                          5B SdbFindNextTag
                          86 SdbGetStringTagPtr
                          B9 SdbReleaseDatabase
                          1C SE_CALLBACK_Lookup
                          1B SE_CALLBACK_AddHook
                          7F SdbGetPDBFromGUID
                          8B SdbInitDatabase
                          1D SE_COM_AddHook
                          35 SE_ShimDPF
                          2B SE_GetShimId
                          20 SE_COM_HookObject
                          21 SE_COM_Lookup
                          1E SE_COM_AddServer

    msvcrt.dll
             180048930 Import Address Table
             18005F548 Import Name Table
                     0 time date stamp
                     0 Index of first forwarder reference

                         50F wcscmp
                          63 __CxxFrameHandler4
                         397 _wcsicmp
                         376 _vsnwprintf
                          5A _XcptFilter
                          B7 _amsg_exit
                         459 free
                         493 malloc
                         189 _initterm
                          5E __C_specific_handler
                          34 ?terminate@@YAXXZ
                         4A0 memcpy_s
                         374 _vsnprintf_s
                           D ??0exception@@QEAA@XZ
                          11 ??1exception@@UEAA@XZ
                           C ??0exception@@QEAA@AEBV0@@Z
                         4A2 memmove_s
                         528 wcstoul
                         10E _errno
                         3A1 _wcsnicmp
                         2AA _purecall
                         4CE strchr
                         4E6 strtoul
                         525 wcstol
                         42D atoi
                         3B0 _wcstoui64
                         306 _stricmp
                         370 _vsnprintf
                         4E1 strstr
                         518 wcsncmp
                         412 _wtoi
                         50D wcscat_s
                         524 wcstok_s
                         4DF strrchr
                         51D wcsrchr
                         50E wcschr
                         51C wcspbrk
                         3B3 _wcsupr
                         521 wcsstr
                         520 wcsspn
                         36D _vscwprintf
                         485 iswspace
                         403 _wsplitpath_s
                         47F iswctype
                         4F8 towlower
                         4F9 towupper
                         512 wcscpy_s
                          12 ??1type_info@@UEAA@XZ
                          62 __CxxFrameHandler3
                          50 _CxxThrowException
                         1F2 _lock
                         34E _unlock
                          84 __dllonexit
                         29C _onexit
                         1ED _local_unwind
                         49E memcmp
                         49F memcpy
                         4A1 memmove
                         4A3 memset
                         4CF strcmp

    ntdll.dll
             180048B18 Import Address Table
             18005F730 Import Name Table
                     0 time date stamp
                     0 Index of first forwarder reference

                         1A7 NtOpenFile
                         1FB NtQuerySecurityObject
                         447 RtlGetOwnerSecurityDescriptor
                         3CA RtlEqualSid
                         1F3 NtQueryObject
                         411 RtlGUIDFromString
                         483 RtlInitUnicodeString
                         613 RtlUnicodeStringToInteger
                         2E5 RtlAnsiStringToUnicodeString
                         476 RtlInitAnsiString
                         43F RtlGetNativeSystemInformation
                         101 NtClose
                         253 NtSetInformationProcess
                          22 DbgPrint
                         445 RtlGetNtSystemRoot
                         515 RtlNtStatusToDosError
                         35A RtlCreateServiceSid
                         40E RtlFreeUnicodeString
                         401 RtlFormatCurrentUserKeyPath
                         26F NtSetValueKey
                         644 RtlVirtualUnwind
                         500 RtlLookupFunctionEntry
                         2FF RtlCaptureContext
                         407 RtlFreeHeap
                         2DF RtlAllocateHeap
                         3A7 RtlDosPathNameToNtPathName_U
                         120 NtCreateKey
                         206 NtQueryValueKey
                         4C6 RtlIsDosDeviceName_U
                         4E7 RtlLengthRequiredSid
                         499 RtlInitializeSid
                         1E7 NtQueryInformationToken
                         5ED RtlSubAuthoritySid
                         56D RtlReAllocateHeap
                         46F RtlImageNtHeader
                         4CE RtlIsNameInExpression
                         1B4 NtOpenProcessToken
                         1AA NtOpenKey
                         1BD NtOpenThreadToken

    api-ms-win-service-core-l1-1-1.dll
             180048850 Import Address Table
             18005F468 Import Name Table
                     0 time date stamp
                     0 Index of first forwarder reference

                           0 EnumDependentServicesW

    api-ms-win-service-winsvc-l1-1-0.dll
             180048898 Import Address Table
             18005F4B0 Import Name Table
                     0 time date stamp
                     0 Index of first forwarder reference

                           2 ControlService

    api-ms-win-service-management-l1-1-0.dll
             180048860 Import Address Table
             18005F478 Import Name Table
                     0 time date stamp
                     0 Index of first forwarder reference

                           5 OpenServiceW
                           0 CloseServiceHandle
                           3 DeleteService
                           4 OpenSCManagerW

    api-ms-win-service-management-l2-1-0.dll
             180048888 Import Address Table
             18005F4A0 Import Name Table
                     0 time date stamp
                     0 Index of first forwarder reference

                           6 QueryServiceStatusEx

    api-ms-win-eventing-provider-l1-1-0.dll
             180048840 Import Address Table
             18005F458 Import Name Table
                     0 time date stamp
                     0 Index of first forwarder reference

                           9 EventWriteTransfer

    SHLWAPI.dll
             180048738 Import Address Table
             18005F350 Import Name Table
                     0 time date stamp
                     0 Index of first forwarder reference

                          C7 SHGetValueW
                         108 SHStrDupW

    USER32.dll
             180048760 Import Address Table
             18005F378 Import Name Table
                     0 time date stamp
                     0 Index of first forwarder reference

                         15A GetGUIThreadInfo
                         247 IsWindow
                         1F9 GetWindowThreadProcessId
                         35C SetRect
                         387 SetWindowsHookExAW
                         1C8 GetSystemMetrics
                           8 AllowSetForegroundWindow
                         291 MsgWaitForMultipleObjects
                          BD DispatchMessageW
                         18C GetMonitorInfoW
                         2F3 RegisterSuspendResumeNotification
                         318 SendMessageW
                         328 SetCursor
                         1C2 GetShellWindow
                          FD EnumDisplayDevicesW
                         258 LoadCursorW
                         131 GetClassNameW
                         2AE PostQuitMessage
                         3B2 TranslateMessage
                         35B SetPropW
                         392 ShowWindow
                         2A9 PeekMessageW

    ole32.dll
             180048C58 Import Address Table
             18005F870 Import Name Table
                     0 time date stamp
                     0 Index of first forwarder reference

                          8C CoTaskMemFree
                          2B CoCreateInstance
                          54 CoGetObject
                         20D StringFromGUID2

    SHELL32.dll
             180048700 Import Address Table
             18005F318 Import Name Table
                     0 time date stamp
                     0 Index of first forwarder reference

                         150 SHGetFolderPathW
                          8D SHChangeNotify
                         14F SHGetFolderPathEx
                             Ordinal   165
                          9D SHCreateDirectoryExW
                         16E SHGetSpecialFolderPathW

    USERENV.dll
             180048818 Import Address Table
             18005F430 Import Name Table
                     0 time date stamp
                     0 Index of first forwarder reference

                          26 GetUserProfileDirectoryW
                          17 GetAllUsersProfileDirectoryW

    KERNEL32.dll
             1800482E0 Import Address Table
             18005EEF8 Import Name Table
                     0 time date stamp
                     0 Index of first forwarder reference

                         2E5 GetShortPathNameW
                         281 GetLongPathNameW
                         26D GetFullPathNameW
                         344 GetWindowsDirectoryW
                         4FE SearchPathW
                         662 lstrcmpiW
                          D3 CreateFileW
                         4E3 ResolveDelayLoadedAPI
                         118 DelayLoadFailureHook
                         60A WakeAllConditionVariable
                         5A9 SleepConditionVariableSRW
                         456 QueryActCtxSettingsW
                         223 GetCurrentDirectoryW
                         446 ProcessIdToSessionId
                          C7 CreateEventW
                         259 GetFileAttributesW
                         254 GetFileAttributesA
                          A2 CompareStringOrdinal
                         562 SetProcessAffinityMask
                         27D GetLogicalProcessorInformationEx
                         22D GetCurrentProcessorNumberEx
                         24C GetEnvironmentVariableA
                         4E7 ResumeThread
                          83 CheckElevationEnabled
                         5F7 VirtualProtect
                         288 GetModuleFileNameW
                          FB CreateThread
                         174 ExpandEnvironmentStringsW
                         333 GetUserDefaultUILanguage
                         53B SetErrorMode
                           9 AddDllDirectory
                          8E CloseHandle
                         420 OpenMutexW
                         22B GetCurrentProcessId
                          E2 CreateMutexW
                         5A7 Sleep
                         464 QueryPerformanceCounter
                         22F GetCurrentThreadId
                         301 GetSystemTimeAsFileTime
                         323 GetTickCount
                         5D8 UnhandledExceptionFilter
                         597 SetUnhandledExceptionFilter
                         22A GetCurrentProcess
                         5B6 TerminateProcess
                         1B9 FormatMessageW
                         363 HeapAlloc
                         2CB GetProcessHeap
                         367 HeapFree
                         28B GetModuleHandleExW
                         287 GetModuleFileNameA
                         111 DebugBreak
                         28C GetModuleHandleW
                         2C4 GetProcAddress
                         274 GetLastError
                         397 IsDebuggerPresent
                         430 OutputDebugStringW
                         557 SetLastError
                         4CE ReleaseSemaphore
                         4C9 ReleaseMutex
                         590 SetThreadpoolTimer
                         605 WaitForThreadpoolTimerCallbacks
                          98 CloseThreadpoolTimer
                         603 WaitForSingleObjectEx
                           0 AcquireSRWLockExclusive
                           1 AcquireSRWLockShared
                         141 EnterCriticalSection
                         37E InitializeCriticalSectionEx
                         11B DeleteCriticalSection
                         602 WaitForSingleObject
                         428 OpenSemaphoreW
                         1A9 FindStringOrdinal
                         4CC ReleaseSRWLockExclusive
                         4CD ReleaseSRWLockShared
                          FF CreateThreadpoolTimer
                         3BC K32GetModuleFileNameExW
                          E1 CreateMutexExW
                          F4 CreateSemaphoreExW
                         3D6 LeaveCriticalSection
                         36C HeapSize
                         36F HeapValidate
                         37D InitializeCriticalSectionAndSpinCount
                         5F1 VirtualAlloc
                         5F4 VirtualFree
                         569 SetProcessInformation
                         170 ExitProcess
                         53A SetEnvironmentVariableW
                         24D GetEnvironmentVariableW
                         3AA IsWow64Process
                         1E8 GetCommandLineA
                          E9 CreateProcessA
                         250 GetExitCodeProcess
                         3E8 LocalFree
                         2F8 GetSystemDirectoryW
                         3DD LoadLibraryW
                         1A8 FindResourceW
                         5A6 SizeofResource
                         3E0 LoadResource
                         3F4 LockResource
                         408 MultiByteToWideChar
                         539 SetEnvironmentVariableA
                         3DC LoadLibraryExW
                         1BD FreeLibrary
                         1E9 GetCommandLineW
                         66B lstrlenW
                          B8 CreateActCtxW
                         458 QueryActCtxW
                         4C7 ReleaseActCtx
                         324 GetTickCount64
                         401 MoveFileExW
                         3E3 LocalAlloc
                          A1 CompareStringEx
                         3C7 LCIDToLocaleName
                         277 GetLocaleInfoEx
                         3C9 LCMapStringEx
                         36A HeapReAlloc
                         629 WideCharToMultiByte
                         19A FindNLSStringEx
                         399 IsNLSDefinedString

    ADVAPI32.dll
             180048220 Import Address Table
             18005EE38 Import Name Table
                     0 time date stamp
                     0 Index of first forwarder reference

                         271 RegCreateKeyExW
                         2A6 RegQueryValueExW
                         268 RegCloseKey
                         2A0 RegQueryInfoKeyW
                         28A RegEnumValueW
                         2B6 RegSetValueExW
                         287 RegEnumKeyExW
                          83 ConvertStringSidToSidW
                         1A9 LookupAccountSidW
                         277 RegDeleteKeyExW
                         280 RegDeleteValueW
                         2B5 RegSetValueExA
                         222 OpenProcessToken
                         28E RegGetValueW
                          93 CreateWellKnownSid
                         292 RegLoadKeyW
                         2B9 RegUnLoadKeyW
                         1AF LookupPrivilegeValueW
                          1F AdjustTokenPrivileges
                         170 GetTokenInformation
                         308 StartServiceW
                         25D QueryServiceStatus
                         299 RegOpenKeyExW

    RPCRT4.dll
             1800486A8 Import Address Table
             18005F2C0 Import Name Table
                     0 time date stamp
                     0 Index of first forwarder reference

                         176 RpcBindingFromStringBindingW
                         211 RpcStringBindingComposeW
                          2E I_RpcExceptionFilter
                         16C RpcAsyncCompleteCall
                         16E RpcAsyncInitializeHandle
                         215 RpcStringFreeW
                         16B RpcAsyncCancelCall
                         174 RpcBindingFree
                          94 Ndr64AsyncClientCall
                         186 RpcBindingSetAuthInfoExW

    MPR.dll
             180048698 Import Address Table
             18005F2B0 Import Name Table
                     0 time date stamp
                     0 Index of first forwarder reference

                          2D WNetGetConnectionW

    SspiCli.dll
             180048750 Import Address Table
             18005F368 Import Name Table
                     0 time date stamp
                     0 Index of first forwarder reference

                          19 GetUserNameExW

    api-ms-win-core-apiquery-l1-1-0.dll
             180048830 Import Address Table
             18005F448 Import Name Table
                     0 time date stamp
                     0 Index of first forwarder reference

                           0 ApiSetQueryApiSetPresence

  Section contains the following delay load imports:

    ext-ms-win-ntuser-windowstation-l1-1-0.dll
              00000001 Characteristics
      0000000180062EA0 Address of HMODULE
      0000000180068000 Import Address Table
      000000018005EB80 Import Name Table
      000000018005EC10 Bound Import Name Table
      0000000000000000 Unload Import Name Table
                     0 time date stamp

                                    000000018000283A     8 GetThreadDesktop
                                    0000000180002828     9 GetUserObjectInformationW
                                    0000000180002746     7 GetProcessWindowStation

    pcacli.dll
              00000001 Characteristics
      0000000180062EB8 Address of HMODULE
      0000000180068020 Import Address Table
      000000018005EBA0 Import Name Table
      000000018005EC30 Bound Import Name Table
      0000000000000000 Unload Import Name Table
                     0 time date stamp

                                    000000018000284C     6 PcaMonitorProcess

  Summary

        2000 .data
        1000 .didat
        4000 .pdata
       1B000 .rdata
        1000 .reloc
        2000 .rsrc
       46000 .text
