Microsoft (R) COFF/PE Dumper Version 14.29.30137.0
Copyright (C) Microsoft Corporation.  All rights reserved.


Dump of file C:\Windows\WinSxS\amd64_microsoft-windows-grouppolicy-script_31bf3856ad364e35_10.0.22000.653_none_605f03f8f4ef5450\gpscript.exe

File Type: EXECUTABLE IMAGE

  Image has the following dependencies:

    api-ms-win-core-file-l1-1-0.dll
    api-ms-win-core-registry-l1-1-0.dll
    api-ms-win-core-errorhandling-l1-1-0.dll
    api-ms-win-core-processthreads-l1-1-0.dll
    api-ms-win-core-processenvironment-l1-1-0.dll
    api-ms-win-core-synch-l1-1-0.dll
    api-ms-win-core-heap-l2-1-0.dll
    api-ms-win-core-sysinfo-l1-1-0.dll
    api-ms-win-core-handle-l1-1-0.dll
    api-ms-win-core-libraryloader-l1-2-0.dll
    api-ms-win-core-string-l1-1-0.dll
    api-ms-win-core-heap-l1-1-0.dll
    USER32.dll
    msvcrt.dll
    ntdll.dll
    api-ms-win-core-debug-l1-1-0.dll
    api-ms-win-security-base-l1-1-0.dll
    api-ms-win-security-sddl-l1-1-0.dll
    api-ms-win-core-synch-l1-2-0.dll
    api-ms-win-core-profile-l1-1-0.dll

  Section contains the following imports:

    api-ms-win-core-file-l1-1-0.dll
             140007C78 Import Address Table
             14000A8E8 Import Name Table
                     0 time date stamp
                     0 Index of first forwarder reference

                          5E WriteFile
                           7 CreateFileW
                          2C GetFileAttributesExW
                          58 SetFilePointer
                           2 CompareFileTime
                           4 CreateDirectoryW

    api-ms-win-core-registry-l1-1-0.dll
             140007DB0 Import Address Table
             14000AA20 Import Name Table
                     0 time date stamp
                     0 Index of first forwarder reference

                          2E RegSetValueExW
                          21 RegQueryInfoKeyW
                          1C RegOpenCurrentUser
                           0 RegCloseKey
                          1E RegOpenKeyExW
                          25 RegQueryValueExW

    api-ms-win-core-errorhandling-l1-1-0.dll
             140007C50 Import Address Table
             14000A8C0 Import Name Table
                     0 time date stamp
                     0 Index of first forwarder reference

                           F SetUnhandledExceptionFilter
                           D SetLastError
                           5 GetLastError
                          11 UnhandledExceptionFilter

    api-ms-win-core-processthreads-l1-1-0.dll
             140007D40 Import Address Table
             14000A9B0 Import Name Table
                     0 time date stamp
                     0 Index of first forwarder reference

                           D GetCurrentProcessId
                          11 GetCurrentThreadId
                          22 GetStartupInfoW
                          52 SetThreadToken
                           C GetCurrentProcess
                          55 TerminateProcess
                           3 CreateProcessW
                          34 OpenProcessToken
                          10 GetCurrentThread
                          13 GetExitCodeProcess
                          36 OpenThreadToken

    api-ms-win-core-processenvironment-l1-1-0.dll
             140007D18 Import Address Table
             14000A988 Import Name Table
                     0 time date stamp
                     0 Index of first forwarder reference

                           1 ExpandEnvironmentStringsW
                          12 SetCurrentDirectoryW
                          15 SetEnvironmentVariableW
                           B GetEnvironmentVariableW

    api-ms-win-core-synch-l1-1-0.dll
             140007DF8 Import Address Table
             14000AA68 Import Name Table
                     0 time date stamp
                     0 Index of first forwarder reference

                          36 WaitForSingleObject
                           F DeleteCriticalSection
                          1A InitializeCriticalSectionEx

    api-ms-win-core-heap-l2-1-0.dll
             140007CD8 Import Address Table
             14000A948 Import Name Table
                     0 time date stamp
                     0 Index of first forwarder reference

                           3 LocalFree
                           2 LocalAlloc

    api-ms-win-core-sysinfo-l1-1-0.dll
             140007E28 Import Address Table
             14000AA98 Import Name Table
                     0 time date stamp
                     0 Index of first forwarder reference

                          1A GetTickCount
                           5 GetLocalTime
                          16 GetSystemTimeAsFileTime
                          13 GetSystemTime
                           F GetSystemDirectoryW

    api-ms-win-core-handle-l1-1-0.dll
             140007CB0 Import Address Table
             14000A920 Import Name Table
                     0 time date stamp
                     0 Index of first forwarder reference

                           0 CloseHandle
                           2 DuplicateHandle

    api-ms-win-core-libraryloader-l1-2-0.dll
             140007CF0 Import Address Table
             14000A960 Import Name Table
                     0 time date stamp
                     0 Index of first forwarder reference

                          16 GetProcAddress
                          15 GetModuleHandleW
                           D FreeLibrary
                          19 LoadLibraryExW

    api-ms-win-core-string-l1-1-0.dll
             140007DE8 Import Address Table
             14000AA58 Import Name Table
                     0 time date stamp
                     0 Index of first forwarder reference

                           2 CompareStringW

    api-ms-win-core-heap-l1-1-0.dll
             140007CC8 Import Address Table
             14000A938 Import Name Table
                     0 time date stamp
                     0 Index of first forwarder reference

                           A HeapSetInformation

    USER32.dll
             140007C28 Import Address Table
             14000A898 Import Name Table
                     0 time date stamp
                     0 Index of first forwarder reference

                         3CB UpdatePerUserSystemParameters
                         1C8 GetSystemMetrics

    msvcrt.dll
             140007E88 Import Address Table
             14000AAF8 Import Name Table
                     0 time date stamp
                     0 Index of first forwarder reference

                          14 ??3@YAXPEAX@Z
                          63 __CxxFrameHandler4
                           B ??0exception@@QEAA@AEBQEBDH@Z
                          A2 __wargv
                          B7 _amsg_exit
                           C ??0exception@@QEAA@AEBV0@@Z
                          7A __argc
                         1E5 _itow
                         376 _vsnwprintf
                          11 ??1exception@@UEAA@XZ
                          36 ?what@exception@@UEBAPEBDXZ
                          50 _CxxThrowException
                         2AA _purecall
                          5A _XcptFilter
                           A ??0exception@@QEAA@AEBQEBD@Z
                          A6 __wgetmainargs
                         4A3 memset
                         49F memcpy
                         4A1 memmove
                          12 ??1type_info@@UEAA@XZ
                         29C _onexit
                          84 __dllonexit
                          34 ?terminate@@YAXXZ
                          DB _commode
                         1F2 _lock
                         38F _wcmdln
                         493 malloc
                          C8 _callnewh
                          62 __CxxFrameHandler3
                          5E __C_specific_handler
                         189 _initterm
                          99 __setusermatherr
                          CA _cexit
                         117 _exit
                         43F exit
                          97 __set_app_type
                         34E _unlock
                         130 _fmode

    ntdll.dll
             140007FC0 Import Address Table
             14000AC30 Import Name Table
                     0 time date stamp
                     0 Index of first forwarder reference

                         644 RtlVirtualUnwind
                         500 RtlLookupFunctionEntry
                         2FF RtlCaptureContext
                         340 RtlCopySid
                         4E9 RtlLengthSid

    api-ms-win-core-debug-l1-1-0.dll
             140007C40 Import Address Table
             14000A8B0 Import Name Table
                     0 time date stamp
                     0 Index of first forwarder reference

                           7 OutputDebugStringW

    api-ms-win-security-base-l1-1-0.dll
             140007E58 Import Address Table
             14000AAC8 Import Name Table
                     0 time date stamp
                     0 Index of first forwarder reference

                          2C EqualSid
                          45 ImpersonateLoggedOnUser
                          42 GetTokenInformation

    api-ms-win-security-sddl-l1-1-0.dll
             140007E78 Import Address Table
             14000AAE8 Import Name Table
                     0 time date stamp
                     0 Index of first forwarder reference

                           1 ConvertSidToStringSidW

    api-ms-win-core-synch-l1-2-0.dll
             140007E18 Import Address Table
             14000AA88 Import Name Table
                     0 time date stamp
                     0 Index of first forwarder reference

                          2D Sleep

    api-ms-win-core-profile-l1-1-0.dll
             140007DA0 Import Address Table
             14000AA10 Import Name Table
                     0 time date stamp
                     0 Index of first forwarder reference

                           0 QueryPerformanceCounter

  Summary

        2000 .data
        1000 .pdata
        5000 .rdata
        1000 .reloc
        1000 .rsrc
        6000 .text
