Microsoft (R) COFF/PE Dumper Version 14.29.30137.0
Copyright (C) Microsoft Corporation.  All rights reserved.


Dump of file C:\Windows\WinSxS\amd64_microsoft-windows-r..s-regkeys-component_31bf3856ad364e35_10.0.22000.1_none_85d1c84a0c984001\rdpudd.dll

File Type: DLL

  Image has the following dependencies:

    WIN32K.SYS
    ntoskrnl.exe

  Section contains the following imports:

    WIN32K.SYS
             1C0018000 Import Address Table
             1C0018240 Import Name Table
                     0 time date stamp
                     0 Index of first forwarder reference

                          14 EngBugCheckEx
                          12 EngAssociateSurface
                          32 EngDeletePalette
                          37 EngDeleteSurface
                          47 EngFreeMem
                          A0 EngUnlockSurface
                          6B EngLockSurface
                           D EngAllocMem
                          21 EngCreateDeviceSurface
                          1E EngCreateBitmap
                          39 EngDeviceIoControl
                          4E EngGetCurrentThreadId
                          4D EngGetCurrentProcessId
                          25 EngCreatePalette
                          97 EngStrokePath
                          99 EngTextOut
                          13 EngBitBlt
                          1C EngCopyBits
                          BD PATHOBJ_bEnum
                          C4 PATHOBJ_vGetBounds
                          C2 PATHOBJ_vEnumStart
                          F9 XLATEOBJ_iXlate
                          82 EngQueryPerformanceCounter
                           6 CLIPOBJ_cEnumStart
                           5 CLIPOBJ_bEnum
                          83 EngQueryPerformanceFrequency
                          C5 RtlAnsiCharToUnicodeChar

    ntoskrnl.exe
             1C00180E0 Import Address Table
             1C0018320 Import Name Table
                     0 time date stamp
                     0 Index of first forwarder reference

                         B42 ZwOpenProcessTokenEx
                         B68 ZwQueryInformationToken
                         AE9 ZwClose
                         B45 ZwOpenSection
                         8D5 RtlInitializeSid
                         924 RtlMapGenericMask
                         996 RtlSubAuthoritySid
                         981 RtlSetDaclSecurityDescriptor
                         604 MmUnmapViewInSystemSpace
                         35E IoGetFileObjectGenericMapping
                         564 KeWaitForMultipleObjects
                         6AB ObfDereferenceObject
                         AFF ZwCreateSection
                         5DB MmMapViewInSystemSpace
                         8CB RtlInitUnicodeString
                         356 IoGetDeviceObjectPointer
                         917 RtlLengthSid
                         915 RtlLengthRequiredSid
                         7D7 RtlAddAccessAllowedAce
                         53A KeSetEvent
                          B4 ExAllocatePool2
                         69B ObReferenceObjectByHandle
                         72A PsGetCurrentProcessSessionId
                         829 RtlCreateAcl
                          E5 ExFreePoolWithTag
                         830 RtlCreateSecurityDescriptor
                         A0F SeExports
                         31B IoCreateSynchronizationEvent
                         B40 ZwOpenProcess
                         91E RtlLookupElementGenericTableAvl

  Summary

        3000 .data
        1000 .idata
        1000 .pdata
        3000 .rdata
        1000 .reloc
        1000 .rsrc
       10000 .text
        1000 GFIDS
