Microsoft (R) COFF/PE Dumper Version 14.29.30137.0
Copyright (C) Microsoft Corporation.  All rights reserved.


Dump of file C:\Windows\System32\drivers\refs.sys

File Type: EXECUTABLE IMAGE

  Image has the following dependencies:

    ntoskrnl.exe
    HAL.dll
    ext-ms-win-ntos-ksr-l1-1-1.dll

  Section contains the following imports:

    ntoskrnl.exe
             1C017C048 Import Address Table
             1C017CF00 Import Name Table
                     0 time date stamp
                     0 Index of first forwarder reference

                          E5 ExFreePoolWithTag
                         4AF KeInitializeEvent
                         566 KeWaitForSingleObject
                         132 ExReleasePushLockEx
                          2E CcGetFileObjectFromSectionPtrsRef
                         12C ExReleaseFastMutex
                         6AB ObfDereferenceObject
                         221 FsRtlOplockIsFastIoPossible
                          28 CcFlushCache
                         109 ExIsResourceAcquiredExclusiveLite
                         1EB FsRtlIsNtstatusExpected
                         190 FsRtlAreNamesEqual
                          41 CcPurgeCacheSection
                          9C ExAcquireFastMutex
                         510 KeReleaseGuardedMutex
                          3C CcMdlWriteComplete
                         19B FsRtlCheckOplock
                         19A FsRtlCheckLockForWriteAccess
                         5D2 MmMapLockedPagesSpecifyCache
                          3F CcPrepareMdlWrite
                         207 FsRtlNormalizeNtstatus
                         19C FsRtlCheckOplockEx
                         47B KeDelayExecutionThread
                          3A CcMdlReadComplete
                         687 ObDereferenceObjectDeferDelete
                          51 CcSetParallelFlushFile
                         469 KeBugCheckEx
                          55 CcUninitializeCacheMap
                          A3 ExAcquireResourceExclusiveLite
                          3E CcPinRead
                         318 IoCreateStreamFileObjectLite
                          1C CcCoherencyFlushAndPurgeCache
                         376 IoGetTopLevelIrp
                          40 CcPreparePinWrite
                         516 KeReleaseMutant
                          32 CcInitializeCacheMap
                         59E MmCanFileBeTruncated
                         374 IoGetStackLimits
                         1B0 FsRtlFastUnlockAll
                         484 KeEnterCriticalRegion
                         215 FsRtlNotifyVolumeEvent
                         1C8 FsRtlHeatLogIo
                         3A5 IoRaiseInformationalHardError
                         3F7 IoSetTopLevelIrp
                         300 IoClearActivityIdThread
                         345 IoGetActivityIdThread
                         344 IoGetActivityIdIrp
                         5AA MmForceSectionClosed
                         3C0 IoRemoveShareAccess
                         209 FsRtlNotifyCleanup
                         20B FsRtlNotifyFilterChangeDirectory
                         436 IofCompleteRequest
                         36E IoGetRequestorProcess
                         489 KeExpandKernelStackAndCalloutEx
                         5A9 MmFlushImageSection
                         394 IoPropagateActivityIdToThread
                         4D1 KeLeaveCriticalRegion
                         4F9 KeQueryPriorityThread
                         164 ExUnblockOnAddressPushLockEx
                         115 ExQueueWorkItem
                         800 RtlCaptureStackBackTrace
                         34F IoGetCurrentProcess
                         133 ExReleasePushLockExclusiveEx
                          BB ExBlockOnAddressPushLock
                         11A ExRaiseStatus
                         1A2 FsRtlCurrentBatchOplock
                         2F2 IoCancelFileOpen
                         21A FsRtlOplockBreakH
                         1AB FsRtlDissectName
                         2F3 IoCancelIrp
                         1A4 FsRtlCurrentOplockH
                         68D ObGetObjectSecurity
                         953 RtlQueryFeatureConfiguration
                          6F DbgPrintEx
                         179 ExpInterlockedPopEntrySList
                         1B3 FsRtlFindExtraCreateParameter
                         2FD IoCheckShareAccess
                         3E5 IoSetInformation
                          5B CcWaitForCurrentLazyWriterActivity
                         17A ExpInterlockedPushEntrySList
                         196 FsRtlCancellableWaitForSingleObject
                         21E FsRtlOplockFsctrl
                         21B FsRtlOplockBreakH2
                         10F ExQueryDepthSList
                         3F3 IoSetShareAccessEx
                         53A KeSetEvent
                         6A4 ObReleaseObjectSecurity
                         17C FsRtlAcknowledgeEcp
                         2FE IoCheckShareAccessEx
                         193 FsRtlAreVolumeStartupApplicationsComplete
                         415 IoUpdateShareAccess
                         1EA FsRtlIsNonEmptyDirectoryReparsePointAllowed
                         258 FsRtlValidateReparsePointBuffer
                         5A8 MmDoesFileHaveUserWritableReferences
                         44C KeAcquireGuardedMutex
                         387 IoIsOperationSynchronous
                         368 IoGetIrpExtraCreateParameter
                         933 RtlNotifyFeatureUsage
                         935 RtlNtStatusToDosErrorNoTeb
                         BE9 _strnicmp
                         750 PsGetProcessImageFileName
                          38 CcMapData
                         2EF IoBuildPartialMdl
                         5FD MmUnlockPages
                         5E6 MmProbeAndLockPages
                         3FA IoSizeofWorkItem
                         149 ExSetResourceOwnerPointerEx
                         3EF IoSetMasterIrpStatus
                          1F CcCopyWrite
                         5D3 MmMapLockedPagesWithReservedMapping
                         33D IoFreeIrp
                         59D MmBuildMdlForNonPagedPool
                         2E2 IoAllocateMdl
                         3EA IoSetIoPriorityHint
                         365 IoGetIoPriorityHint
                         137 ExReleaseResourceForThreadLite
                         493 KeFlushIoBuffers
                         37E IoInitializeWorkItem
                         2ED IoBuildAsynchronousFsdRequest
                         336 IoFileObjectType
                         5E0 MmMdlPageContentsState
                          E8 ExGetExclusiveWaiterCount
                         69B ObReferenceObjectByHandle
                         2E1 IoAllocateIrpEx
                         601 MmUnmapReservedMapping
                          57 CcUnpinData
                         3A2 IoQueueWorkItemEx
                         340 IoFreeMdl
                         1EE FsRtlIsTotalDeviceFailure
                         409 IoUninitializeWorkItem
                         435 IofCallDriver
                         600 MmUnmapLockedPages
                         382 IoIs32bitProcess
                         38E IoMakeAssociatedIrpEx
                         3E0 IoSetFsTrackOffsetState
                         1E8 FsRtlIsNameInExpression
                         1AD FsRtlDoesNameContainWildCards
                         9FC SeCaptureSubjectContext
                         20D FsRtlNotifyFilterReportChange
                         9EF SeAuditHardLinkCreation
                         35E IoGetFileObjectGenericMapping
                         9F9 SeAuditingHardLinkEventsWithContext
                         8D1 RtlInitUnicodeString
                         70F ProbeForWrite
                         69A ObQueryObjectAuditingByHandle
                          1D CcCopyRead
                         A11 SeDeleteObjectAuditAlarm
                          A9 ExAcquireSharedStarveExclusive
                          C2 ExConvertExclusiveToSharedLite
                         3EC IoSetIoPriorityHintIntoThread
                         216 FsRtlNotifyVolumeEventEx
                         787 PsIsThreadTerminating
                         21F FsRtlOplockFsctrlEx
                         4FF KeQueryUnbiasedInterruptTime
                         2D9 IoAcquireVpbSpinLock
                         3D3 IoRetrievePriorityInfo
                         2EE IoBuildDeviceIoControlRequest
                         1AF FsRtlFastCheckLockForWrite
                         198 FsRtlCheckLockForOplockRequest
                          94 EtwWriteTransfer
                         790 PsLookupProcessByProcessId
                         4EB KeQueryHighestNodeNumber
                         222 FsRtlOplockIsSharedRequest
                         223 FsRtlOplockKeysEqual
                         2E6 IoApplyPriorityInfoThread
                         1A9 FsRtlDismountComplete
                         3BC IoReleaseVpbSpinLock
                         70E ProbeForRead
                         457 KeAcquireSpinLockRaiseToDpc
                          34 CcIsCacheManagerCallbackNeeded
                         51A KeReleaseSpinLock
                         519 KeReleaseSemaphore
                          24 CcErrorCallbackRoutine
                         6AD ObfReferenceObject
                         3D6 IoSetActivityIdThread
                         1CE FsRtlIncrementCcFastReadResourceMiss
                          39 CcMdlRead
                         1CF FsRtlIncrementCcFastReadWait
                          21 CcCopyWriteWontFlush
                         1CD FsRtlIncrementCcFastReadNotPossible
                         1CB FsRtlIncrementCcFastMdlReadWait
                          1B CcCanIWrite
                         1CC FsRtlIncrementCcFastReadNoWait
                          A2 ExAcquirePushLockSharedEx
                         599 MmAllocatePagesForMdlEx
                         120 ExRegisterCallback
                          C6 ExCreateCallback
                         8D4 RtlInitializeBitMap
                         22B FsRtlProcessFileLock
                         1B2 FsRtlFastUnlockSingle
                         192 FsRtlAreThereWaitingFileLocks
                         22A FsRtlPrivateLock
                         1B1 FsRtlFastUnlockAllByKey
                         10A ExIsResourceAcquiredSharedLite
                         7EF RtlAnsiStringToUnicodeString
                         43A KdDebuggerEnabled
                         699 ObQueryNameString
                         863 RtlEqualUnicodeString
                         82C RtlCopyUnicodeString
                         1C4 FsRtlGetSectorSizeInformation
                         8C8 RtlInitAnsiString
                         3B6 IoRegisterPlugPlayNotification
                         194 FsRtlBalanceReads
                         6B2 PcwCreateInstance
                         30D IoCreateDevice
                         3DD IoSetDeviceToVerify
                         1C7 FsRtlHeatInit
                         538 KeSetCoalescableTimer
                         5A7 MmDisableModifiedWriteOfSection
                          5A CcUnregisterExternalCache
                          56 CcUnmapFileOffsetFromSystemCache
                         981 RtlSetBit
                         4B7 KeInitializeSpinLock
                         391 IoOpenDeviceRegistryKey
                          19 CcAddDirtyPagesToExternalCache
                          22 CcDeductDirtyPagesFromExternalCache
                         358 IoGetDevicePropertyData
                         1C9 FsRtlHeatLogTierMove
                          48 CcSetAdditionalCacheAttributesEx
                         72C PsGetCurrentProcessId
                         317 IoCreateStreamFileObjectEx2
                         4EF KeQueryLogicalProcessorRelationship
                          42 CcRegisterExternalCache
                         983 RtlSetBits
                          31 CcGetNumberOfMappedPages
                         9A1 RtlTestBit
                         AF0 ZwClose
                         52B KeResetEvent
                         5E4 MmPrefetchPages
                         1F1 FsRtlLegalAnsiCharacterArray
                         890 RtlFreeOemString
                         9B5 RtlUnicodeStringToCountedOemString
                          3B CcMdlWriteAbort
                         7F2 RtlAppendUnicodeStringToString
                         41B IoVolumeDeviceToDosName
                          8F EtwWrite
                         1AE FsRtlFastCheckLockForRead
                         302 IoClearFsTrackOffsetState
                         2D5 IoAcquireCancelSpinLock
                         3B9 IoReleaseCancelSpinLock
                         855 RtlDuplicateUnicodeString
                         42E IoWithinStackLimits
                         91C RtlLengthSecurityDescriptor
                         6B3 PcwRegister
                         8DB RtlInitializeSid
                         96D RtlRegisterFeatureConfigurationChangeNotification
                         4AB KeInitializeDpc
                         4B0 KeInitializeGuardedMutex
                         99C RtlSubAuthoritySid
                         460 KeAllocateCalloutStackEx
                         987 RtlSetDaclSecurityDescriptor
                         200 FsRtlMdlReadCompleteDev
                         893 RtlFreeUnicodeString
                          F5 ExInitializePagedLookasideList
                         9EC SeAssignSecurity
                         204 FsRtlMdlWriteCompleteDev
                         7DE RtlAddAccessAllowedAceEx
                         B3B ZwNotifyChangeKey
                         22F FsRtlQueryMaximumVirtualDiskNestingLevel
                         4B9 KeInitializeTimer
                         89D RtlGetCompressionWorkSpaceSize
                         497 KeFreeCalloutStack
                         954 RtlQueryFeatureConfigurationChangeStamp
                         91B RtlLengthRequiredSid
                         7DD RtlAddAccessAllowedAce
                         3B1 IoRegisterFileSystem
                         4B6 KeInitializeSemaphore
                         8BF RtlGetVersion
                         9C1 RtlUnregisterFeatureConfigurationChangeNotification
                         A39 SeReleaseSubjectContext
                          F4 ExInitializeNPagedLookasideList
                         5BC MmGetSystemRoutineAddress
                          89 EtwRegister
                         B80 ZwQueryValueKey
                         82F RtlCreateAcl
                         428 IoWMIRegistrationControl
                         4B2 KeInitializeMutant
                         5C8 MmIsThisAnNtAsSystem
                         230 FsRtlRegisterFileSystemFilterCallbacks
                         836 RtlCreateSecurityDescriptor
                         2D3 InitializeSListHead
                         4E2 KeQueryActiveProcessorCountEx
                          F7 ExInitializeResourceLite
                         B42 ZwOpenKey
                         49D KeGetCurrentProcessorNumberEx
                         6B1 PcwCloseInstance
                         465 KeAreAllApcsDisabled
                         998 RtlSplay
                         843 RtlDelete
                         813 RtlCompareMemory
                          52 CcSetReadAheadGranularity
                          1A CcAsyncCopyRead
                         199 FsRtlCheckLockForReadAccess
                         A28 SePrivilegeCheck
                          23 CcDeferWrite
                         937 RtlNumberGenericTableElementsAvl
                         A44 SeShouldCheckForAccessRightsFromParent
                         A55 SeValidSecurityDescriptor
                         9EB SeAppendPrivileges
                         A17 SeFreePrivileges
                         931 RtlNormalizeSecurityDescriptor
                         9E3 SeAccessCheck
                         8B6 RtlGetSaclSecurityDescriptor
                         9ED SeAssignSecurityEx
                         A31 SeQuerySecurityDescriptorInfo
                         A26 SeOpenObjectForDeleteAuditAlarm
                         9E8 SeAdjustAccessStateForAccessConstraints
                         9E4 SeAccessCheckEx
                         9F3 SeAuditingAnyFileEventsWithContextEx
                         947 RtlOwnerAcesPresent
                         A0E SeDeassignSecurity
                         A23 SeOpenObjectAuditAlarm
                         A51 SeUnlockSubjectContext
                         A02 SeComputeAutoInheritByObjectType
                         A41 SeSetSecurityDescriptorInfo
                         A20 SeLockSubjectContext
                         9F6 SeAuditingFileEventsWithContextEx
                          EC ExGetPreviousMode
                         870 RtlFindAceByType
                         8A1 RtlGetDaclSecurityDescriptor
                         9E7 SeAccessCheckWithHint
                          8E EtwUnregister
                         2F0 IoBuildSynchronousFsdRequest
                         259 FsRtlVolumeDeviceToCorrelationId
                         41C IoVolumeDeviceToGuid
                         212 FsRtlNotifyInitializeSync
                          EF ExInitializeAutoExpandPushLock
                         1D9 FsRtlInitializeOplock
                         59C MmBadPointer
                         518 KeReleaseQueuedSpinLock
                         8D9 RtlInitializeGenericTableAvl
                         847 RtlDeleteElementGenericTableAvl
                          CE ExDeleteResourceLite
                         326 IoDeleteDevice
                         8DF RtlInsertElementGenericTableAvl
                          BF ExCleanupAutoExpandPushLock
                         24C FsRtlTeardownPerStreamContexts
                         592 MmAllocateMappingAddress
                         85F RtlEnumerateGenericTableWithoutSplayingAvl
                         8E1 RtlInsertElementGenericTableFullAvl
                         214 FsRtlNotifyUninitializeSync
                         255 FsRtlUninitializeOplock
                         5AE MmFreeMappingAddress
                         1B9 FsRtlFreeFileLock
                         24B FsRtlTeardownPerFileContexts
                         453 KeAcquireQueuedSpinLock
                         123 ExReinitializeResourceLite
                         18A FsRtlAllocateFileLock
                         1CA FsRtlHeatUninit
                         5B5 MmGetMaximumFileSectionSize
                         926 RtlLookupElementGenericTableFullAvl
                         BF8 _vsnwprintf
                          8C EtwSetInformation
                         4BB KeInitializeTimerEx
                         46A KeCancelTimer
                         4FC KeQueryTimeIncrement
                         494 KeFlushQueuedDpcs
                         B3F ZwOpenEvent
                         503 KeReadStateEvent
                         542 KeSetPriorityThread
                          4B CcSetDirtyPinnedData
                         418 IoVerifyVolume
                         40F IoUnregisterPlugPlayNotification
                         93B RtlNumberOfSetBits
                         3E4 IoSetHardErrorOrVerifyDevice
                         816 RtlCompareUnicodeString
                         1C6 FsRtlGetVirtualDiskNestingLevel
                         49B KeGetCurrentIrql
                         71E PsCreateSystemThread
                         160 ExTryQueueWorkItem
                          B8 ExAllocatePoolWithTag
                         87E RtlFindNextForwardRunClear
                         46F KeClearEvent
                         138 ExReleaseResourceLite
                          A4 ExAcquireResourceSharedLite
                          A1 ExAcquirePushLockExclusiveEx
                          4D CcSetFileSizesEx
                         BCF __C_specific_handler
                          98 ExAcquireAutoExpandPushLockShared
                         125 ExReleaseAutoExpandPushLockShared
                         BDD _purecall
                          D3 ExDisownFastResource
                          F2 ExInitializeFastResource
                         129 ExReleaseDisownedFastResource
                          A0 ExAcquireFastResourceSharedStarveExclusive
                         106 ExIsFastResourceHeldExclusive
                         122 ExReinitializeFastResource
                          9E ExAcquireFastResourceExclusive
                         12F ExReleaseFastResource
                         105 ExIsFastResourceHeld
                          CA ExDeleteFastResource
                          C3 ExConvertFastResourceExclusiveToShared
                          F1 ExInitializeFastOwnerEntry
                          9F ExAcquireFastResourceShared
                         80C RtlClearBits
                         406 IoTransferActivityId
                         44E KeAcquireInStackQueuedSpinLock
                         512 KeReleaseInStackQueuedSpinLock
                         16A ExUuidCreate
                          E0 ExFreeAutoExpandPushLock
                          B0 ExAllocateAutoExpandPushLock
                          97 ExAcquireAutoExpandPushLockExclusive
                         124 ExReleaseAutoExpandPushLockExclusive
                         C20 qsort
                         5F4 MmSetAddressRangeModified
                         808 RtlClearAllBits
                         882 RtlFindSetBits
                         7F8 RtlAreBitsSet
                         15B ExTryAcquirePushLockSharedEx
                         15A ExTryAcquirePushLockExclusiveEx
                         537 KeSetBasePriorityThread
                         564 KeWaitForMultipleObjects
                         967 RtlRandomEx
                         7F6 RtlAreBitsClear
                         871 RtlFindClearBits
                         93D RtlNumberOfSetBitsInRange
                         97F RtlSetAllBits
                         156 ExTryAcquireAutoExpandPushLockExclusive
                         157 ExTryAcquireAutoExpandPushLockShared
                         37C IoInitializeRemoveLockEx
                         849 RtlDeleteHashTable
                         2D8 IoAcquireRemoveLockEx
                         3BA IoReleaseRemoveLockAndWaitEx
                         8CB RtlInitEnumerationHashTable
                         85A RtlEnumerateEntryHashTable
                         96E RtlRemoveEntryHashTable
                         857 RtlEndEnumerationHashTable
                         833 RtlCreateHashTableEx
                         820 RtlCopyBitMap
                         8CE RtlInitStrongEnumerationHashTable
                         99A RtlStronglyEnumerateEntryHashTable
                         858 RtlEndStrongEnumerationHashTable
                         927 RtlLookupEntryHashTable
                         8E2 RtlInsertEntryHashTable
                         3BB IoReleaseRemoveLockEx
                          E3 ExFreePool
                          CC ExDeleteNPagedLookasideList
                         827 RtlCopyMemoryNonTemporal
                         178 ExpInterlockedFlushSList
                         938 RtlNumberOfClearBits
                          CD ExDeletePagedLookasideList
                         818 RtlCompressBuffer
                         83E RtlDecompressBufferEx
                         BF6 _vsnprintf
                         36F IoGetRequestorProcessId
                         BD9 _local_unwind

    HAL.dll
             1C017C000 Import Address Table
             1C017CEB8 Import Name Table
                     0 time date stamp
                     0 Index of first forwarder reference

                          54 KeQueryPerformanceCounter

    ext-ms-win-ntos-ksr-l1-1-1.dll
             1C017C010 Import Address Table
             1C017CEC8 Import Name Table
                     0 time date stamp
                     0 Index of first forwarder reference

                           0 KsrClaimPersistedMemory
                           4 KsrFreePersistedMemory
                           E KsrPersistMemory
                           9 KsrMdlToMemoryRuns
                           6 KsrGetFirmwareInformation
                           3 KsrEnumeratePersistedMemory

  Summary

       23000 .data
        5000 .idata
       10000 .pdata
       2C000 .rdata
        9000 .reloc
       32000 .rsrc
      11C000 .text
        1000 GFIDS
        4000 INIT
       8E000 PAGE
        1000 msrodata
