Microsoft (R) COFF/PE Dumper Version 14.29.30137.0
Copyright (C) Microsoft Corporation.  All rights reserved.


Dump of file C:\Windows\WinSxS\amd64_microsoft-windows-win32kbase_31bf3856ad364e35_10.0.22000.1_none_04b9e36e6b866fff\win32kbase.sys

File Type: EXECUTABLE IMAGE

  Image has the following dependencies:

    watchdog.sys
    msrpc.sys
    ext-ms-win-core-win32k-dxgk-internal-l1-1-0.dll
    ext-ms-win-ntos-werkernel-l1-1-1.dll
    WppRecorder.sys
    ksecdd.sys
    dxgkrnl.sys
    ntoskrnl.exe
    HAL.dll

  Section contains the following imports:

    watchdog.sys
             1C02DAFB8 Import Address Table
             1C02DC108 Import Name Table
                     0 time date stamp
                     0 Index of first forwarder reference

                          1B DisplayScenarioJournalDisplayUniquenessIncremented
                          1C DisplayScenarioJournalFinalize
                          24 DisplayScenarioJournalSetUniqueness
                          23 DisplayScenarioJournalSetSpecializedData
                          17 DisplayScenarioJounralSetTSDDDState
                          1E DisplayScenarioJournalSetActualPathModality
                          1D DisplayScenarioJournalRetry
                          20 DisplayScenarioJournalSetExpectedPathModality
                          3F WdDiagNotifyUser
                          21 DisplayScenarioJournalSetSDCPathsAndModes
                          14 DisplayRestoreVidPnJournalBegin
                          65 WdLogSingleEntry3
                          18 DisplayScenarioJournalBegin
                          66 WdLogSingleEntry4
                          62 WdLogSingleEntry0
                          67 WdLogSingleEntry5
                          64 WdLogSingleEntry2
                          63 WdLogSingleEntry1
                          48 WdInitialize
                          15 DisplayRestoreVidPnJournalFinalize

    msrpc.sys
             1C02DA0C8 Import Address Table
             1C02DB218 Import Name Table
                     0 time date stamp
                     0 Index of first forwarder reference

                          34 RpcAsyncCompleteCall
                          37 RpcBindingBind
                          33 RpcAsyncCancelCall
                           9 I_RpcGetCompleteAndFreeRoutine
                          3A RpcBindingFree
                          3F RpcBindingUnbind
                          16 Ndr64AsyncClientCall
                          36 RpcAsyncInitializeHandle
                          39 RpcBindingCreateW
                           4 I_RpcExceptionFilter
                          38 RpcBindingCopy

    ext-ms-win-core-win32k-dxgk-internal-l1-1-0.dll
             1C02DA088 Import Address Table
             1C02DB1D8 Import Name Table
                     0 time date stamp
                     0 Index of first forwarder reference

                           0 DxgkCloseAdapterInternal
                           2 DxgkWaitForVerticalBlankEventInternal
                           1 DxgkOpenAdapterFromLuidInternal

    ext-ms-win-ntos-werkernel-l1-1-1.dll
             1C02DA0A8 Import Address Table
             1C02DB1F8 Import Name Table
                     0 time date stamp
                     0 Index of first forwarder reference

                           6 WerSubmitUserCrashReport

    WppRecorder.sys
             1C02DA010 Import Address Table
             1C02DB160 Import Name Table
                     0 time date stamp
                     0 Index of first forwarder reference

                           B imp_WppRecorderLogCreate
                           5 imp_WppRecorderConfigure
                          10 imp_WppRecorderReplay
                           C imp_WppRecorderLogDelete
                           3 WppAutoLogStop
                           4 WppAutoLogTrace
                           2 WppAutoLogStart

    ksecdd.sys
             1C02DA0B8 Import Address Table
             1C02DB208 Import Name Table
                     0 time date stamp
                     0 Index of first forwarder reference

                          16 BCryptGenRandom

    dxgkrnl.sys
             1C02DA050 Import Address Table
             1C02DB1A0 Import Name Table
                     0 time date stamp
                     0 Index of first forwarder reference

                           B DxgkGetSessionTokenManager
                          11 DxgkReleaseCompositionObjectReference
                          10 DxgkReferenceCompositionObject
                           E DxgkOpenDwmHandleForCompositionObjectReference
                          12 DxgkSetCompositionSurfaceInkCookie
                         135 g_OutputDuplicationTestControl

    ntoskrnl.exe
             1C02DA128 Import Address Table
             1C02DB278 Import Name Table
                     0 time date stamp
                     0 Index of first forwarder reference

                          BA ExAllocateTimer
                         140 ExReleaseSpinLockSharedFromDpcLevel
                         115 ExQueueWorkItem
                         13F ExReleaseSpinLockShared
                          AD ExAcquireSpinLockShared
                          AE ExAcquireSpinLockSharedAtDpcLevel
                          AB ExAcquireSpinLockExclusive
                         9B5 RtlUpcaseUnicodeToMultiByteN
                         7D7 RtlAnsiCharToUnicodeChar
                         12C ExReleaseFastMutex
                          9C ExAcquireFastMutex
                         BC9 __chkstk
                         C1E sqrt
                         C1F sqrtf
                         C25 strcmp
                         C42 wcscmp
                         B5D ZwQueryKey
                         462 KeBugCheckEx
                         10A ExIsResourceAcquiredSharedLite
                         109 ExIsResourceAcquiredExclusiveLite
                         73C PsGetProcessId
                         759 PsGetThreadId
                         878 RtlFreeHeap
                         760 PsGetThreadWin32Thread
                          77 DbgkWerCaptureLiveKernelDump
                         71B PsGetCurrentProcessWin32Process
                         719 PsGetCurrentProcessId
                         71C PsGetCurrentProcessWow64Process
                         98B RtlTestBit
                         7F4 RtlClearBit
                         96B RtlSetBit
                         85B RtlFindClearBits
                         8BE RtlInitializeBitMap
                         7F2 RtlClearAllBits
                         951 RtlRandomEx
                         86C RtlFindSetBits
                         7AB PsSetProcessPriorityByClass
                         742 PsGetProcessPriorityClass
                         7AC PsSetProcessPriorityClass
                          A1 ExAcquirePushLockExclusiveEx
                         47D KeEnterCriticalRegion
                         4C9 KeLeaveCriticalRegion
                         133 ExReleasePushLockExclusiveEx
                          A2 ExAcquirePushLockSharedEx
                         134 ExReleasePushLockSharedEx
                         69B ObfDereferenceObject
                         91E RtlNtStatusToDosError
                         BC6 _purecall
                         BB8 __C_specific_handler
                         8BB RtlInitUnicodeString
                         74D PsGetProcessWin32Process
                         52E KeSetEvent
                         9A1 RtlUnicodeStringToInteger
                         AE6 ZwCreateIoCompletion
                         68B ObReferenceObjectByHandle
                         67A ObDuplicateObject
                         671 ObCloseHandle
                         AF6 ZwCreateWaitCompletionPacket
                         AD3 ZwAssociateWaitCompletionPacket
                         741 PsGetProcessPeb
                         718 PsGetCurrentProcess
                         5F9 MmUserProbeAddress
                         117 ExRaiseDatatypeMisalignment
                         B2B ZwOpenKey
                         B69 ZwQueryValueKey
                         AD9 ZwClose
                         75A PsGetThreadProcess
                         11A ExRaiseStatus
                         75B PsGetThreadProcessId
                         744 PsGetProcessSectionBaseAddress
                         AE4 ZwCreateEvent
                          DC ExEventObjectType
                         BA8 ZwTerminateProcess
                          D0 ExDesktopObjectType
                         69D ObfReferenceObject
                         73E PsGetProcessInheritedFromUniqueProcessId
                         7B3 PsSetThreadWin32Thread
                          E5 ExFreePoolWithTag
                         7AE PsSetProcessWin32Process
                          85 EtwActivityIdControl
                         510 KeReleaseSemaphore
                          94 EtwWriteTransfer
                         6FD ProbeForWrite
                         534 KeSetKernelStackSwapEnable
                         721 PsGetCurrentThreadId
                         71A PsGetCurrentProcessSessionId
                         B30 ZwOpenProcess
                         B55 ZwQueryInformationProcess
                         A16 SeQueryInformationToken
                         885 RtlGetAppContainerSidType
                         74F PsGetProcessWow64Process
                         762 PsGetWin32KFilterSet
                         7C1 PsUpdateComponentPower
                         790 PsReleaseProcessWakeCounter
                         73A PsGetProcessExitStatus
                          D4 ExEnterCriticalRegionAndAcquireFastMutexUnsafe
                         12E ExReleaseFastMutexUnsafeAndLeaveCriticalRegion
                         942 RtlQueryPackageClaims
                         110 ExQueryFastCacheDevLicense
                         A26 SeSecurityAttributePresent
                         56E LpcPortObjectType
                         75E PsGetThreadSessionId
                         77F PsLookupThreadByThreadId
                         774 PsIsThreadTerminating
                         748 PsGetProcessSessionId
                         77D PsLookupProcessByProcessId
                         67E ObGetObjectType
                          AF ExActivationObjectType
                         771 PsIsSystemProcess
                         749 PsGetProcessSessionIdEx
                         ABA ZwAllocateLocallyUniqueId
                         672 ObCreateObject
                         67F ObInsertObject
                         686 ObOpenObjectByPointer
                         68E ObReferenceObjectByPointer
                         7FD RtlCompareMemory
                          B4 ExAllocatePool2
                         16F ExWindowStationObjectType
                         728 PsGetCurrentThreadWin32Thread
                          D5 ExEnterCriticalRegionAndAcquireResourceExclusive
                         723 PsGetCurrentThreadProcess
                         4C1 KeIsAttachedProcess
                          D6 ExEnterCriticalRegionAndAcquireResourceShared
                         135 ExReleaseResourceAndLeaveCriticalRegion
                         713 PsEnterPriorityRegion
                         77A PsLeavePriorityRegion
                         4A0 KeInitializeApc
                         4B9 KeInsertQueueApc
                         55A KeWaitForSingleObject
                         B3A ZwOpenThreadTokenEx
                         B32 ZwOpenProcessTokenEx
                         787 PsReferenceImpersonationToken
                         789 PsReferencePrimaryToken
                         A15 SeQueryAuthenticationIdToken
                         A36 SeTokenIsRestricted
                         8BC RtlInitUnicodeStringEx
                         B93 ZwSetInformationThread
                         593 MmCommitSessionMappedView
                         5CF MmMapViewOfSection
                         ABC ZwAllocateVirtualMemory
                         5F7 MmUnmapViewOfSection
                         4A7 KeInitializeEvent
                         AF3 ZwCreateTimer
                         4AE KeInitializeSemaphore
                         4B3 KeInitializeTimerEx
                         695 ObSetHandleAttributes
                         155 ExTimerObjectType
                         32F IoFileObjectType
                         B9D ZwSetSystemInformation
                         B66 ZwQuerySystemInformation
                          F7 ExInitializeResourceLite
                          CE ExDeleteResourceLite
                         7BB PsTlsAlloc
                         7BC PsTlsFree
                         7BE PsTlsSetValue
                         7BD PsTlsGetValue
                         8CE RtlInt64ToUnicodeString
                         800 RtlCompareUnicodeString
                         BA2 ZwSetValueKey
                         B0B ZwFlushKey
                         AFC ZwDeleteValueKey
                         B3E ZwPowerInformation
                         882 RtlGetActiveConsoleId
                         366 IoGetRelatedDeviceObject
                         968 RtlSetActiveConsoleId
                         522 KeResetEvent
                         7D6 RtlAllocateHeap
                         690 ObReferenceObjectSafe
                         BB3 ZwUpdateWnfStateData
                         4F4 KeQueryTimeIncrement
                         6F3 PoSetUserPresent
                         558 KeWaitForMultipleObjects
                         570 LpcRequestPort
                         463 KeCancelTimer
                         83A RtlDestroyAtomTable
                         861 RtlFindExportedRoutineByName
                         5E3 MmSectionObjectType
                         AEF ZwCreateSection
                         B35 ZwOpenSection
                         5CB MmMapViewInSessionSpace
                         5F5 MmUnmapViewInSessionSpace
                         83B RtlDestroyHeap
                          8E EtwUnregister
                         520 KeRemoveSystemServiceTable
                         9AB RtlUnregisterFeatureConfigurationChangeNotification
                         B29 ZwOpenFile
                         93D RtlQueryFeatureConfiguration
                         957 RtlRegisterFeatureConfigurationChangeNotification
                         93E RtlQueryFeatureConfigurationChangeStamp
                         88A RtlGetCurrentServiceSessionId
                         B54 ZwQueryInformationJobObject
                         309 IoCreateDriver
                          89 EtwRegister
                          8C EtwSetInformation
                         455 KeAddSystemServiceTable
                          75 DbgkLkmdRegisterCallback
                         8ED RtlIsApiSetImplemented
                         5D5 MmPageEntireDriver
                          F8 ExInitializeRundownProtection
                         68D ObReferenceObjectByName
                         328 IoDriverObjectType
                         948 RtlQueryRegistryValues
                         9FF SeExports
                         9F1 SeCreateAccessState
                         670 ObCheckObjectAccess
                         9F9 SeDeleteAccessState
                         9E6 SeCaptureSubjectContext
                         A0A SeLockSubjectContext
                         A12 SePrivilegeCheck
                         A13 SePrivilegeObjectAuditAlarm
                         A3B SeUnlockSubjectContext
                         A23 SeReleaseSubjectContext
                         81A RtlCreateAtomTable
                         7CE RtlAddAtomToAtomTable
                         935 RtlPinAtomInAtomTable
                         688 ObQueryNameInfo
                         67D ObGetObjectSecurity
                         9D6 SeAssignSecurity
                         694 ObReleaseObjectSecurity
                         696 ObSetSecurityDescriptorInfo
                         9F8 SeDeassignSecurity
                         96D RtlSetBits
                         7F6 RtlClearBits
                         66E ObAssignSecurity
                         875 RtlFormatCurrentUserKeyPath
                         816 RtlCopyUnicodeString
                         87D RtlFreeUnicodeString
                         7DD RtlAppendUnicodeToString
                         7DC RtlAppendUnicodeStringToString
                         94E RtlRaiseException
                         B07 ZwEnumerateValueKey
                         2CC InitSafeBootMode
                         16A ExUuidCreate
                         73D PsGetProcessImageFileName
                         736 PsGetProcessCreateTimeQuadPart
                         74C PsGetProcessStartKey
                         8B2 RtlInitAnsiString
                         7D9 RtlAnsiStringToUnicodeString
                         943 RtlQueryPackageIdentity
                         70F PsDereferencePrimaryToken
                          8F EtwWrite
                         B6A ZwQueryVirtualMemory
                         675 ObDeleteCapturedInsertInfo
                         599 MmCreateSection
                         AE2 ZwCreateDirectoryObject
                         837 RtlDeleteRegistryValue
                         5FC NlsMbCodePageTag
                         5FA NlsAnsiCodePage
                         772 PsIsSystemThread
                         783 PsQueryProcessAttributesByToken
                         8AF RtlImageNtHeader
                         73F PsGetProcessJob
                         732 PsGetJobUIRestrictionsClass
                         72D PsGetJobLock
                         74E PsGetProcessWin32WindowStation
                         116 ExRaiseAccessViolation
                         8F2 RtlIsMultiSessionSku
                         782 PsProcessType
                         809 RtlConvertSidToUnicodeString
                         70D PsDereferenceImpersonationToken
                         724 PsGetCurrentThreadProcessId
                         9C3 RtlWalkFrameChain
                          6F DbgPrintEx
                         775 PsIsWin32KFilterAuditEnabled
                         138 ExReleaseResourceLite
                          A4 ExAcquireResourceSharedLite
                         866 RtlFindMessage
                         474 KeDelayExecutionThread
                         777 PsIsWin32KFilterEnabled
                         81B RtlCreateAtomTableEx
                         7CF RtlAddAtomToAtomTableEx
                         90C RtlLookupAtomInAtomTable
                         82F RtlDeleteAtomFromAtomTable
                         93A RtlQueryAtomInAtomTable
                         81E RtlCreateHeap
                         2D9 IoAllocateErrorLogEntry
                         428 IoWriteErrorLogEntry
                         111 ExQueryPoolBlockSize
                         8D1 RtlIntegerToUnicodeString
                          87 EtwEventEnabled
                         907 RtlLengthSid
                         5AF MmGetSystemRoutineAddress
                         421 IoWMIRegistrationControl
                         C25 vDbgPrintEx
                         2E8 IoBuildDeviceIoControlRequest
                         42E IofCallDriver
                         5EB MmSystemRangeStart
                         4AB KeInitializeMutex
                         50E KeReleaseMutex
                         3AF IoRegisterPlugPlayNotification
                         34D IoGetDeviceInterfaces
                         409 IoUnregisterPlugPlayNotificationEx
                          6E DbgPrint
                         5F8 MmUnsecureVirtualMemory
                         BB2 ZwUnmapViewOfSection
                         B0D ZwFreeVirtualMemory
                         7EA RtlCaptureStackBackTrace
                         5D7 MmPrefetchVirtualAddresses
                         89A RtlGetNtGlobalFlags
                         5E4 MmSecureVirtualMemory
                         729 PsGetCurrentThreadWin32ThreadAndEnterCriticalRegion
                         B58 ZwQueryInformationToken
                         36D IoGetStackLimits
                          CB ExDeleteLookasideListEx
                          F3 ExInitializeLookasideListEx
                         17A ExpInterlockedPushEntrySList
                         10F ExQueryDepthSList
                         179 ExpInterlockedPopEntrySList
                         960 RtlRunOnceBeginInitialize
                         961 RtlRunOnceComplete
                         AE8 ZwCreateKey
                         84D RtlEqualUnicodeString
                         99E RtlUnicodeStringToAnsiString
                         8AE RtlImageDirectoryEntryToData
                         877 RtlFreeAnsiString
                         8FF RtlIsStateSeparationEnabled
                         9C6 RtlWriteRegistryValue
                         38A IoOpenDeviceRegistryKey
                         B05 ZwEnumerateKey
                         C36 wcsncpy_s
                         342 IoGetAttachedDeviceReference
                         2EA IoBuildSynchronousFsdRequest
                         34F IoGetDeviceObjectPointer
                         C1F swprintf_s
                         350 IoGetDeviceProperty
                         C2F wcscpy_s
                         7E8 RtlCapabilityCheckForSingleSessionSku
                         89B RtlGetNtProductType
                         8A3 RtlGetSuiteMask
                         B8B ZwSetEvent
                         B7A ZwResetEvent
                          A9 ExAcquireSharedStarveExclusive
                          A3 ExAcquireResourceExclusiveLite
                          D9 ExEnterPriorityRegionAndAcquireResourceShared
                         4A8 KeInitializeGuardedMutex
                         445 KeAcquireGuardedMutex
                         507 KeReleaseGuardedMutex
                         15A ExTryAcquirePushLockExclusiveEx
                         727 PsGetCurrentThreadTeb
                         C28 vsprintf_s
                         8C9 RtlInsertElementGenericTableAvl
                         90E RtlLookupElementGenericTableAvl
                         831 RtlDeleteElementGenericTableAvl
                         918 RtlMultiByteToUnicodeN
                         9A6 RtlUnicodeToMultiByteN
                         153 ExSystemTimeToLocalTime
                         481 KeExpandKernelStackAndCallout
                         8C3 RtlInitializeGenericTableAvl
                         B1F ZwMapViewOfSection
                         846 RtlEnumerateGenericTableAvl
                         88C RtlGetDefaultCodePage
                         7F0 RtlCheckTokenMembership
                         905 RtlLengthRequiredSid
                         8C5 RtlInitializeSid
                         986 RtlSubAuthoritySid
                         813 RtlCopySid
                         820 RtlCreateSecurityDescriptor
                         819 RtlCreateAcl
                         7CD RtlAddAce
                         971 RtlSetDaclSecurityDescriptor
                         977 RtlSetSaclSecurityDescriptor
                         974 RtlSetOwnerSecurityDescriptor
                         973 RtlSetGroupSecurityDescriptor
                          C1 ExCompositionObjectType
                         468 KeClearEvent
                          F5 ExInitializePagedLookasideList
                          CD ExDeletePagedLookasideList
                          B5 ExAllocatePool3
                         5B5 MmIsDriverVerifyingByAddress
                         351 IoGetDevicePropertyData
                         AE5 ZwCreateFile
                         41C IoWMIOpenBlock
                         41B IoWMIHandleToInstanceName
                         41F IoWMIQuerySingleInstance
                         AFF ZwDeviceIoControlFile
                         AD4 ZwCancelIoFile
                         BB5 ZwWaitForSingleObject
                         737 PsGetProcessDebugPort
                         11B ExRawInputManagerObjectType
                         53E KeSetTimer
                         606 NtClose
                         AD6 ZwCancelTimer
                         B9F ZwSetTimer
                         616 NtDeviceIoControlFile
                         34C IoGetDeviceInterfacePropertyData
                         30D IoCreateNotificationEvent
                         B4A ZwQueryDefaultUILanguage
                         145 ExSemaphoreObjectType
                         7E7 RtlCapabilityCheck
                         545 KeStackAttachProcess
                         555 KeUnstackDetachProcess
                         408 IoUnregisterPlugPlayNotification
                         B5E ZwQueryLicenseValue
                         B6E ZwReadFile
                         B73 ZwReleaseSemaphore
                         84B RtlEqualSid
                         A6E TtmNotifyDeviceArrival
                         A6F TtmNotifyDeviceDeparture
                         A70 TtmNotifyDeviceInput
                         6DB PoLatencySensitivityHint
                         461 KeBugCheck
                         9EF SeConvertStringSecurityDescriptorToSecurityDescriptor
                         4FA KeReadStateEvent
                         AF1 ZwCreateSemaphore
                         B75 ZwRemoveIoCompletionEx
                         B01 ZwDuplicateObject
                         B53 ZwQueryInformationFile
                         B37 ZwOpenSymbolicLinkObject
                         B64 ZwQuerySymbolicLinkObject
                         689 ObQueryNameString
                         7C3 PsWow64GetProcessMachine
                         93C RtlQueryElevationFlags
                         A08 SeIsParentOfChildAppContainer
                         5FE NlsOemCodePage
                         573 LpcSendWaitReceivePort
                         BAC ZwUnloadDriver
                         B17 ZwLoadDriver
                         8A9 RtlGetVersion
                          B8 ExAllocatePoolWithTag
                         30A IoCreateFile
                         433 KdDebuggerEnabled
                         761 PsGetVersion
                         68C ObReferenceObjectByHandleWithTag
                         69C ObfDereferenceObjectWithTag
                         848 RtlEnumerateGenericTableWithoutSplaying
                         830 RtlDeleteElementGenericTable
                         90D RtlLookupElementGenericTable
                         8C8 RtlInsertElementGenericTable
                         8C2 RtlInitializeGenericTable
                         2CD InitializeSListHead
                         178 ExpInterlockedFlushSList
                         746 PsGetProcessSequenceNumber
                         5BC MmLoadSystemImage
                         5ED MmUnloadSystemImage
                         7DB RtlAppendStringToString
                         768 PsIsCurrentThreadInServerSilo
                         72C PsGetHostSilo
                         704 PsAttachSiloToCurrentThread
                         711 PsDetachSiloFromCurrentThread
                         801 RtlCompareUnicodeStrings
                          8D EtwTelemetryCoverageReport
                         460 KeAttachProcess
                         A09 SeLocateProcessImageName
                         47A KeDetachProcess
                         9B0 RtlUpcaseUnicodeString
                         7C7 RtlAddAccessAllowedAce
                         B9B ZwSetSecurityObject
                         AC1 ZwAlpcConnectPortEx
                           3 AlpcInitializeMessageAttribute
                           2 AlpcGetMessageAttribute
                         166 ExUnregisterCallback
                         AD0 ZwAlpcSendWaitReceivePort
                         ABF ZwAlpcCancelMessage
                         ABE ZwAlpcAcceptConnectPort
                         983 RtlStringFromGUID
                         AC2 ZwAlpcCreatePort
                         AD1 ZwAlpcSetInformation
                          C6 ExCreateCallback
                         120 ExRegisterCallback
                          C5 ExCoreMessagingObjectType
                         4C4 KeIsExecutingDpc
                         14A ExSetTimer
                         13D ExReleaseSpinLockExclusive
                          CF ExDeleteTimer
                         494 KeGetCurrentIrql

    HAL.dll
             1C02DA000 Import Address Table
             1C02DB150 Import Name Table
                     0 time date stamp
                     0 Index of first forwarder reference

                          54 KeQueryPerformanceCounter

  Section contains the following exports for win32kbase.sys

    00000000 characteristics
    53153D77 time date stamp
        0.00 version
           1 ordinal base
        2542 number of functions
        2542 number of names

    ordinal hint RVA      name

          1    0 0008B560 ??0BRUSHMEMOBJ@@QEAA@KKHH@Z
          2    1 0008B380 ??0BRUSHMEMOBJ@@QEAA@PEAUHBITMAP__@@0HKKH@Z
          3    2 000B8940 ??0CAutoMutex@OPM@@QEAA@PEAVCMutex@1@@Z
          4    3 00091D10 ??0CHMRefHwndByHandle@@QEAA@PEAUHWND__@@_N111@Z
          5    4 00066940 ??0CInputDest@@QEAA@AEBUtagINPUTDEST@@@Z
          6    5 0001FE90 ??0CInputDest@@QEAA@AEBV0@@Z
          7    6 000E02F0 ??0CMonitorPDO@OPM@@QEAA@AEAU_LUID@@KPEAJ@Z
          8    7 0009C470 ??0CMutex@OPM@@QEAA@PEAJ@Z
          9    8 0006D950 ??0DCMEMOBJ@@QEAA@AEAVDCOBJ@@@Z
         10    9 000DE530 ??0EXFORMOBJ@@QEAA@KK@Z
         11    A 00062C90 ??0PATHMEMOBJ@@QEAA@XZ
         12    B 000347D0 ??0PDEVOBJ@@QEAA@PEAU_LDEV@@PEAU_devicemodeW@@PEAG22PEAXPEAUtagREMOTETYPEONENODE@@PEAU_GDIINFO@@PEAUtagDEVINFO@@HKK@Z
         13    C 000441E0 ??0RGNMEMOBJ@@QEAA@HH@Z
         14    D 00043DC0 ??0RGNMEMOBJ@@QEAA@K@Z
         15    E 000627E0 ??0RGNMEMOBJ@@QEAA@W4DestructorDisposition@0@@Z
         16    F 00047F60 ??0RGNMEMOBJ@@QEAA@XZ
         17   10 0004BF60 ??0RGNOBJAPI@@QEAA@PEAUHRGN__@@H@Z
         18   11 000411A0 ??0SPRITELOCK@@QEAA@AEAVPDEVOBJ@@@Z
         19   12 000C48F0 ??1CAutoMutex@OPM@@QEAA@XZ
         20   13 000957B0 ??1CHMRefHwndByHandle@@QEAA@XZ
         21   14 001D0860 ??1CInputDest@@QEAA@XZ
         22   15 00181AF0 ??1CMonitorPDO@OPM@@UEAA@XZ
         23   16 000D7C70 ??1CMutex@OPM@@QEAA@XZ
         24   17 000AB890 ??1DCMEMOBJ@@QEAA@XZ
         25   18 000607E0 ??1PALMEMOBJ@@QEAA@XZ
         26   19 00040220 ??1PATHMEMOBJ@@QEAA@XZ
         27   1A 000AE990 ??1SPRITELOCK@@QEAA@XZ
         28   1B 000749E0 ??1SURFMEM@@QEAA@XZ
         29   1C 00191210 ??1TargetInfo@CHwndTargetProp@@QEAA@XZ
         30   1D 0015C130 ??4CHMRefHwndByHandle@@QEAAAEAV0@AEBV0@@Z
         31   1E 000F58E0 ?AccessProceduresStream@@YAHPEAUtagKE@@KH@Z
         32   1F 000F5960 ?AccessTimeOut@@YAXXZ
         33   20 000DA6B0 ?AccessTimeOutReset@@YAXXZ
         34   21 000C8740 ?AddLSurf@SURFACE@@QEAAXPEAVSFMLOGICALSURFACE@@@Z
         35   22 000C2FE0 ?AddNotificationToken@SfmTokenArray@@QEAAJPEAU_D3DKMT_PRESENTHISTORYTOKEN@@@Z
         36   23 00229B80 ?AddRef@CompositionObject@@QEBAJXZ
         37   24 001D53B0 ?AddThreadPointerData@CTouchProcessor@@QEAAHPEAUtagTHREADINPUTPOINTERLIST@@GK_KIUtagINPUTDEST@@H@Z
         38   25 001D5780 ?AddThreadPointerHookData@CTouchProcessor@@QEAAHPEAUtagTHREADINPUTPOINTERLIST@@GK_KIUtagINPUTDEST@@@Z
         39   26 001D58E0 ?AdjustCaptureOnRetrieval@CTouchProcessor@@QEAAXUtagINPUTDEST@@I_KHHHHI@Z
         40   27 001D5A20 ?AdjustEdgyFrameInputDest@CTouchProcessor@@QEAAXPEAXUtagINPUTDEST@@@Z
         41   28 00035290 ?Allocate@PDEV@@SAPEAV1@H@Z
         42   29 000442F0 ?AllocateRegion@RGNMEMOBJ@@SAPEAVREGION@@K@Z
         43   2A 00020390 ?ApplyBoost@GroupedProcessForegroundBoost@@YAXPEBUtagWND@@@Z
         44   2B 00020370 ?ApplyDeBoost@GroupedProcessForegroundBoost@@YAXPEBUtagWND@@@Z
         45   2C 000DABB0 ?ApplyGatheredKeyboardDeviceCount@CKeyboardProcessor@@QEAAXK@Z
         46   2D 000CE090 ?AssignAttachQueue@tagTHREADINFO@@QEAAPEAUtagQ@@PEAU2@@Z
         47   2E 000D0CA0 ?AssignQueue@tagTHREADINFO@@QEAAPEAUtagQ@@PEAU2@@Z
         48   2F 00037AE0 ?BoundPoint@CCursorClip@@QEAA?AW4ClipResult@@UtagPOINT@@W4BoundPointOptions@@W4InputTracing_MouseUpdatePositionReason@@PEAU3@@Z
         49   30 001D61E0 ?BreakEditionParentNotifyLoop@CTouchProcessor@@QEAAHPEAX@Z
         50   31 000C2AC0 ?CalculateMouseTable@@YAXXZ
         51   32 001F3D00 ?CallUserModeLockFree@InputExtensibilityCallout@@QEAAXPEAU_CLIENT_DEVICE_NOTIFICATION@@@Z
         52   33 000D4190 ?CancelActivePointers@CTouchProcessor@@QEAAXXZ
         55   34 0015D4F0 ?CheckProcessForeground@ForegroundManagement@@YA_NK@Z
         56   35 000D4210 ?CleanupInputDestHwndRefsForDesktopThreadExit@CTouchProcessor@@QEAAXXZ
         57   36 000D40E0 ?CleanupManipulationThreadData@CTouchProcessor@@QEAAXXZ
         58   37 00039780 ?ClearClip@CCursorClip@@QEAAXXZ
         59   38 000099F0 ?ClearPtiLastWoken@CInputGlobals@@QEAAXXZ
         60   39 000C9860 ?ClearSystemVisual@CHwndTargetProp@@QEAAHW4_HwndTargetType@@@Z
         61   3A 000A0880 ?Close@IOCPDispatcher@@QEAAX_N@Z
         62   3B 00026660 ?CompareToCurrent@CMonitorTopology@@QEBA?AW4CompareResult@1@XZ
         63   3C 000D6C80 ?Create@LegacyInputDispatcher@@SAJPEAPEAV1@@Z
         64   3D 000BB380 ?CreateHandle@CompositionObject@@QEBAJK_NDPEAPEAX@Z
         67   3E 000D78A0 ?CreateSessionGlobal@CInputManager@@SAJXZ
         70   3F 00180820 ?DbgPrintGDI@@YAXPEADZZ
         71   40 002AFBA0 ?DcAttrDefault@@3UDC_ATTR_KM@@A
         72   41 000C8CC0 ?DeInitialize@SfmTokenArray@@QEAAXXZ
         73   42 00182FE0 ?DecrementClientReferenceCount@PDEV@@QEAAKXZ
         74   43 001DBCA0 ?DelegateCapture@CTouchProcessor@@QEAA?AUtagINPUTDEST@@GKH@Z
         75   44 001DBFE0 ?DelegateCoalescePointerMessage@CTouchProcessor@@QEAAH_KHHHI@Z
         76   45 001DC270 ?DelegateImplictCaptureAndReleaseIfNeeded@CTouchProcessor@@QEAAX_K@Z
         77   46 000C9810 ?Delete@CHwndTargetProp@@UEAAXXZ
         78   47 00181C10 ?Destroy@CMonitorPDO@OPM@@UEAAJXZ
         79   48 000D95D0 ?DestroySessionGlobal@CInputManager@@SAXXZ
         83   49 0006B6E0 ?Dispatch@IOCPDispatcher@@QEAAXW4WaitCompletionPacketPurpose@@K@Z
         84   4A 001DC9B0 ?DispatchFramePostDelayZoneProcessingAndGetNext@CTouchProcessor@@QEAAPEAXPEAX@Z
         85   4B 001DCEF0 ?DoDeferredPointerActivate@CTouchProcessor@@QEAAXUtagINPUTDEST@@_K@Z
         86   4C 000DF670 ?DoesCurrentProcessOwnProtectedOutput@CMonitorPDO@OPM@@QEBAEXZ
         87   4D 00181D00 ?DoesProcessOwnProtectedOutput@CMonitorPDO@OPM@@QEBAEPEAX@Z
         88   4E 001F3870 ?EnableSpeedBump@CCursorClip@@QEAAX_N@Z
         89   4F 00035970 ?EngDeletePaletteInternal@@YAHPEAUHPALETTE__@@K@Z
         90   50 000070D0 ?Enter@EnterLeaveCritMitRitHandOffHazard@@AEAAXXZ
         91   51 001F4A90 ?EnterGuard@CInpLockGuard@@QEAAXXZ
         92   52 000B6170 ?EnumDevices@CBaseInput@@QEBAXPEAXP6A_NQEAUDEVICEINFO@@0@Z@Z
         93   53 000B6130 ?EnvironmentChanged@CPTPProcessor@@SAXXZ
         94   54 001F9730 ?ExecuteTimer@CAccessibilityTimer@@SAXW4_ACCESSIBILITY_TIMERS@@@Z
         95   55 001D0D40 ?FilterKeys@@YAHPEAUtagKE@@KH@Z
         96   56 00005630 ?FindDeviceInfo@CBaseInput@@QEBAPEAUDEVICEINFO@@PEAXH@Z
         97   57 001DD800 ?ForwardInertiaFrameToManipulationThread@CTouchProcessor@@SAXPEBUCPointerInputFrame@@@Z
         98   58 0001A530 ?ForwardInputToISM@CKeyboardProcessor@@SAX_NGGGPEAXK0_KPEAU_KEYBOARD_VIRTUAL_DEVICE_INFO@@@Z
         99   59 001F34F0 ?ForwardInputToKeyboardOverrider@CKeyboardProcessor@@SAX_NGGGPEAXKGPEAU_KEYBOARD_VIRTUAL_DEVICE_INFO@@@Z
        100   5A 001DD830 ?ForwardInputToManipulationThread@CTouchProcessor@@QEAAXPEBUCPointerInputFrame@@W4MIT_INPUT_INTEROP_CALLBACK@@@Z
        101   5B 00033240 ?Free@PDEV@@SAXPEAV1@H@Z
        102   5C 002A9460 ?G_fServiceSession@@3HA
        103   5D 000E08E0 ?GetClip@CCursorClip@@QEBA?AUtagRECT@@XZ
        104   5E 000F5DA0 ?GetContactVisualizationPointerEventInt@CTouchProcessor@@QEAAPEBUtagPOINTEREVENTINT@@PEAXPEAH@Z
        105   5F 0015F3A0 ?GetContentRects@CContentRects@@SA_NIPEAUtagRECT@@PEAI@Z
        106   60 000DB060 ?GetCurrent@CTopologyManager@@SAPEAVCMonitorTopology@@XZ
        107   61 001F3EC0 ?GetDimmedState@CInputGlobals@@QEBA_NXZ
        108   62 001F3F20 ?GetDisplayOnState@CInputGlobals@@QEBA_NXZ
        109   63 00039410 ?GetDomainLockRef@@YAAEAUtagDomLock@@W4DomainLockType@@@Z
        110   64 000322D0 ?GetFirstLSurf@SURFACE@@QEAAPEAVSFMLOGICALSURFACE@@XZ
        111   65 0015D820 ?GetForegroundWindow@ForegroundManagement@@YAPEAUHWND__@@XZ
        112   66 000F5DE0 ?GetFrameIdFromPointerMsgId@CTouchProcessor@@QEAAK_K@Z
        113   67 0000D0A0 ?GetGlobalTickCount@CInputGlobals@@QEBA_KW4INPUT_GLOBALS_TICK_COUNT@@@Z
        114   68 00193B70 ?GetHidVidPidStrings@RimTelemetry@@SAXQEAURIMDEV@@PEAU_UNICODE_STRING@@1@Z
        115   69 001E0F10 ?GetHwndReference@CTouchProcessor@@QEAAPEAUHWND__@@_KPEAGPEAI@Z
        116   6A 0015C150 ?GetInputFlags@CompositionInputObject@@QEBA?AW4CompositionInputFlags@@XZ
        117   6B 000E8760 ?GetInstance@CInertiaManager@@SAPEAV1@XZ
        118   6C 000B3710 ?GetKernelHandleToRimObj@CHidInput@@QEAAJPEAPEAX@Z
        119   6D 0001CB80 ?GetLastInputTime@CInputGlobals@@QEBA_KXZ
        120   6E 001F3F80 ?GetLastInputType@CInputGlobals@@QEBA?AW4_LINP_SOURCE@@XZ
        121   6F 00026760 ?GetMonitorFromId@CMonitorTopology@@SAPEAUtagMONITOR@@AEBUMonitorId@1@@Z
        122   70 001E1000 ?GetMsgPointerIdFromEdition@CTouchProcessor@@QEAAG_K@Z
        123   71 0003B9E0 ?GetNotificationTokens@SfmTokenArray@@QEAAJIPEAIPEAU_D3DKMT_PRESENTHISTORYTOKEN@@@Z
        124   72 0015F670 ?GetObjTypeDomainLockRef@@YAAEAUtagDomLock@@PEAX@Z
        125   73 001E11F0 ?GetPointerBarrelVisualization@CTouchProcessor@@QEAAHG@Z
        126   74 000F5EF0 ?GetPointerCapture@CTouchProcessor@@QEAAX_KHPEAPEAXPEAH@Z
        127   75 001E12F0 ?GetPointerCursorIdFromMsgData@CTouchProcessor@@QEAAH_KPEAK@Z
        128   76 001E1390 ?GetPointerData@CTouchProcessor@@QEAAH_KKIPEAUtagPOINTER_INFO@@@Z
        129   77 001E1660 ?GetPointerDataQPCTimeList@CTouchProcessor@@QEAAH_KIPEA_KPEAH@Z
        130   78 001E1AC0 ?GetPointerDataTimes@CTouchProcessor@@QEAAH_KIPEAUTELEMETRY_POINTER_FRAME_TIMES@@@Z
        131   79 001E1F50 ?GetPointerDataWithHistory@CTouchProcessor@@QEAAH_KKKPEAIPEAE@Z
        132   7A 001E2380 ?GetPointerDownFrame@CTouchProcessor@@QEAAK_K@Z
        133   7B 001E25D0 ?GetPointerFrameDataWithHistory@CTouchProcessor@@QEAAH_KKHKPEAI1PEAE@Z
        134   7C 001E2EF0 ?GetPointerInfo@CTouchProcessor@@QEAAPEBUtagPOINTER_INFO@@PEBUCPointerInputFrame@@K@Z
        135   7D 001E2F60 ?GetPointerInfo@CTouchProcessor@@QEAAPEBUtagPOINTER_INFO@@_K@Z
        136   7E 001E3730 ?GetPointerMessageInfo@CTouchProcessor@@QEAAH_KHPEAPEAUHWND__@@PEAH2PEAKPEAI@Z
        137   7F 001E3A80 ?GetPointerMessagePoint@CTouchProcessor@@QEAAHGPEAUtagPOINT@@@Z
        138   80 001E40D0 ?GetPointerRawDataWithHistory@CTouchProcessor@@QEAAH_KIIPEBUtagPOINTER_DEVICE_PROPERTY@@IPEAJ@Z
        139   81 001E5290 ?GetPointerVisualization@CTouchProcessor@@QEAAHGPEAH@Z
        140   82 001FCBB0 ?GetPrimaryRegion@Mouse@InputConfig@@SA?AUCInputSpaceRegion@@XZ
        141   83 001F72F0 ?GetProcessor@CPTPProcessorFactory@@SAPEAVCPTPProcessor@@PEAUDEVICEINFO@@@Z
        142   84 0006B590 ?GetPtiLastWoken@CInputGlobals@@QEBAPEAUtagTHREADINFO@@XZ
        143   85 000CCAB0 ?GetPtiLastWokenHotKey@CInputGlobals@@QEBAPEAUtagTHREADINFO@@XZ
        144   86 000F6180 ?GetThreadPointerData@CTouchProcessor@@QEAA_KPEAUtagTHREADINPUTPOINTERLIST@@GPEAKPEAHPEAPEAUHWND__@@@Z
        145   87 000B2FD0 ?GetThreadsWithPKL@@YAIPEAPEAPEAUtagTHREADINFO@@PEAU_TL@@PEAUtagKL@@@Z
        146   88 001E55F0 ?GetTouchProcessorLock@CTouchProcessor@@QEAAAEAUCInpLockGuard@@XZ
        147   89 001FD590 ?GetTransform@CDesktopInputSink@@SA_NPEAUtagINPUT_TRANSFORM@@@Z
        148   8A 00071C70 ?GetUnionRegion@Mouse@InputConfig@@SA?AUCInputSpaceRegion@@XZ
        149   8B 00054010 ?GetUserAttr@XDCOBJ@@AEAAPEAU_DC_ATTR@@XZ
        150   8C 000BB9B0 ?GetWakeOnInputDeviceTypesFromRegistry@CInputGlobals@@QEBAKXZ
        151   8D 00002080 ?GetWindowForInputType@CompositionInputObject@@QEBAJW4CompositionInputType@@PEAPEAUHWND__@@@Z
        152   8E 002B3F38 ?GreEngLoadModuleAllocList@@3U_LIST_ENTRY@@A
        153   8F 002B0968 ?GreEngLoadModuleAllocListLock@@3PEAUHSEMAPHORE__@@EA
        154   90 000B3640 ?HandleDirectStartStopDeviceReadRequest@CHidInput@@QEAAXXZ
        155   91 000E5060 ?HandlePTPTelemetry@Usage@PTPTelemetry@@SAXXZ
        156   92 000110F0 ?HandleTSRequest@CBaseInput@@QEAAXW4InputTSRequest@@@Z
        157   93 001D1010 ?HighContrastHotKey@@YAHPEAUtagKE@@KH@Z
        159   94 00281BE8 ?INVALID_MONITOR_HANDLE@OPM@@3QEAXEA
        160   95 0015DDE0 ?IdenticalToCurrent@CMonitorTopology@@QEBA_NXZ
        161   96 000E83C0 ?IncrementClientReferenceCount@PDEV@@QEAAXXZ
        162   97 001F4AD0 ?IncrementWaiters@CInpLockGuard@@QEAAXXZ
        163   98 001FA030 ?InertiaSourceFromPointerType@CInertiaManager@@SA?AW4INERTIA_SOURCE@@K@Z
        164   99 000D2970 ?Initialize@LegacyInputDispatcher@@QEAAJD_NIIPEAULegacyDispatcherObject@@@Z
        165   9A 000BB940 ?Initialize@SfmTokenArray@@QEAAXXZ
        166   9B 0008C580 ?InitializeScanLookAsideList@RGNMEMOBJ@@SAHXZ
        167   9C 0009EBF0 ?InitializeSensor@CBaseInput@@QEAAJXZ
        168   9D 0015FB90 ?InverseTransformPoint@@YA?AUTransformedPoint@@AEBU1@AEBUtagINPUT_TRANSFORM@@@Z
        169   9E 001FCC90 ?IsConfigured@CInputConfig@@QEAA_NXZ
        170   9F 000E0280 ?IsDestroyed@CMonitorPDO@OPM@@UEAAEXZ
        172   A0 0015FE90 ?IsIdentityTransform@@YA_NAEBUtagINPUT_TRANSFORM@@@Z
        173   A1 000CC1F0 ?IsImplicit@CompositionInputObject@@QEBAHXZ
        174   A2 001E6140 ?IsPointerMessageTouchpad@CTouchProcessor@@QEAAHPEAUtagTHREADINFO@@_KG@Z
        175   A3 001E6270 ?IsPointerMsgRedirected@CTouchProcessor@@QEAAH_KPEAH@Z
        176   A4 001E6350 ?IsPointerPrimary@CTouchProcessor@@QEAAH_K@Z
        177   A5 001E63A0 ?IsPointerWindowFrameMessage@CTouchProcessor@@QEAAH_KPEAUHWND__@@I_JH@Z
        178   A6 0015C620 ?IsProcessPriorityByClassBackground@ForegroundBoost@@YA_NPEBUtagPROCESSINFO@@@Z
        179   A7 001D0A40 ?IsRawMouseSubscriber@CInputDest@@QEBA_NXZ
        180   A8 000AF980 ?IsTimeFromLastInputEvent@CInputGlobals@@QEBA_NK@Z
        181   A9 001F98F0 ?KillTimer@CAccessibilityTimer@@SA_NW4_ACCESSIBILITY_TIMERS@@@Z
        182   AA 001F4AE0 ?LeaveGuard@CInpLockGuard@@QEAAXXZ
        183   AB 001F4B70 ?LeaveGuardOnDwmWerStart@CInpLockGuard@@QEAAXXZ
        184   AC 000D4330 ?LeaveGuardOnThreadTermination@CInpLockGuard@@QEAAXXZ
        185   AD 001F4BC0 ?LeaveGuardOnWerStart@CInpLockGuard@@QEAAXXZ
        186   AE 000B8970 ?Lock@CMutex@OPM@@QEAAXXZ
        187   AF 000D43D0 ?LockExclusive@CInpLockGuard@@QEAAXAEAVCRefUnRefPointerMsgId@@AEAVCDomainLockAssistant@@@Z
        188   B0 00067BA0 ?LockExclusive@CInpPushLock@@QEAAXXZ
        189   B1 00037770 ?LockExclusive@tagDomLock@@QEBAXXZ
        190   B2 000932D0 ?LockExclusive@tagObjLock@@QEBAXXZ
        191   B3 001F4C30 ?LockExclusiveWithoutGuard@CInpLockGuard@@QEAAXXZ
        192   B4 000C5810 ?LockFocusWnd@tagQ@@QEAAPEAUtagWND@@PEAU2@W4_LockOptions@@@Z
        193   B5 000AE140 ?LockForRead@CompositionInputObject@@QEBAJPEAPEBVCInputSink@@@Z
        194   B6 000AE030 ?LockForWrite@CompositionInputObject@@QEAAJPEAPEAVCInputSink@@@Z
        195   B7 000D0720 ?LockInitialize@tagDomLock@@QEBAJXZ
        196   B8 000BB940 ?LockInitialize@tagObjLock@@QEBAXXZ
        197   B9 000BB940 ?LockInitializeProcessCreator@tagObjLock@@QEBAXXZ
        198   BA 000BB940 ?LockInitializeThreadCreator@tagObjLock@@QEBAXXZ
        199   BB 001F4C70 ?LockShared@CInpLockGuard@@QEAAXAEAVCRefUnRefPointerMsgId@@AEAVCDomainLockAssistant@@@Z
        200   BC 000CA5F0 ?LockShared@CInpPushLock@@QEAAXXZ
        201   BD 000972C0 ?LockShared@tagDomLock@@QEBAXXZ
        202   BE 00160D00 ?LockShared@tagObjLock@@QEBAXXZ
        203   BF 000972C0 ?LockSharedWithoutGuard@CInpLockGuard@@QEAAXXZ
        204   C0 000A1320 ?LockUnInitialize@tagDomLock@@QEBAXXZ
        205   C1 00073140 ?LockUnInitialize@tagObjLock@@QEBAX_N@Z
        206   C2 00073140 ?LockUnInitializeProcessCreator@tagObjLock@@QEBAXXZ
        207   C3 00073140 ?LockUnInitializeThreadCreator@tagObjLock@@QEBAXXZ
        208   C4 001D10C0 ?MKButtonSelect@@YAHG@Z
        209   C5 000DAD10 ?MKHideMouseCursor@@YAXXZ
        210   C6 001D10F0 ?MKShowMouseCursor@@YAXXZ
        211   C7 00092480 ?Map@SURFACE@@QEAA?AW4SurfaceMapStatus@1@PEAXPEAVDC@@@Z
        212   C8 001F3FE0 ?MarkLastInputAsJournalling@CInputGlobals@@QEAAXXZ
        213   C9 001E66A0 ?MarkPointerMessageGenerated@CTouchProcessor@@QEAAXI_JHPEAX@Z
        214   CA 001D1150 ?MouseKeys@@YAHPEAUtagKE@@KH@Z
        215   CB 002B0970 ?MultiUserEngAllocListLock@@3PEAUHSEMAPHORE__@@EA
        216   CC 002B3F48 ?MultiUserGreEngAllocList@@3U_LIST_ENTRY@@A
        217   CD 00281BF0 ?NOT_ALERTABLE@OPM@@3EB
        218   CE 001E6960 ?NotifyCaptureChangedIfCaptured@CTouchProcessor@@QEAAPEAUtagINPUTDEST@@_KPEAU2@@Z
        219   CF 001E6B00 ?NotifyCaptureChangedIfCapturedDelegate@CTouchProcessor@@QEAAPEAUtagINPUTDEST@@_KPEAU2@PEAG@Z
        220   D0 00254740 ?NotifyDwmInputThreadShutdown@CInputManager@@SAXPEAU_ETHREAD@@@Z
        223   D1 000E8750 ?OnSettingsAvailable@PTPTelemetry@@SAXXZ
        224   D2 001F7CF0 ?OnUserLogin@PTPTelemetry@@SAXXZ
        225   D3 000A9110 ?OpenDwmHandle@CompositionInputObject@@QEBAJPEAPEAX@Z
        226   D4 000A92F0 ?OpenDwmHandle@CompositionObject@@QEBAJPEAPEAX@Z
        227   D5 0015C160 ?PopulateCustomDispatcherObjectsArray@IOCPDispatcher@@UEAAJIPEAPEAX@Z
        228   D6 001F45D0 ?PopulateCustomDispatcherObjectsArray@LegacyInputDispatcher@@UEAAJIPEAPEAX@Z
        229   D7 001F47A0 ?PopulateDispatcherObjectWithCustomInputEvents@CBaseInput@@QEAAJAEAVCEventBitmap@@PEAVIRegisterInputDispatcherObjects@@@Z
        230   D8 001E8370 ?PrepareMakePointerMessage@CTouchProcessor@@QEAAPEBUtagPOINTER_INFO@@_KPEAUtagPOINT@@PEAH22@Z
        232   D9 000F69B0 ?ProcessMouseQueue@CPTPProcessor@@SAXXZ
        233   DA 001FBE00 ?ProcessPTPMouseInput@CHidInput@@QEAAXPEAXPEAU_MOUSE_INPUT_DATA@@_K2K@Z
        234   DB 001EADA0 ?PromotePointerDataToMouse@CTouchProcessor@@QEAAH_KK@Z
        235   DC 000DA6F0 ?PurgeInputDispatcherObjects@LegacyInputDispatcher@@QEAAXXZ
        236   DD 001FA4A0 ?QueryInertia@CInertiaManager@@QEBAPEBUINERTIA_INFO_INTERNAL@@UtagPOINT@@W4INERTIA_SOURCE@@@Z
        237   DE 000126C0 ?Read@CBaseInput@@QEAAJXZ
        238   DF 000F6610 ?RefPointerMsgIdAndUnLock@CInpLockGuard@@QEAAXAEAVCRefUnRefPointerMsgId@@@Z
        239   E0 001EB110 ?ReferenceFrameFromPointerMsgId@CTouchProcessor@@QEAAPEBUCPointerInputFrame@@_K@Z
        240   E1 001EB5A0 ?ReferenceMsgDataExternal@CTouchProcessor@@QEAAX_KW4tagPOINTERMSGDATA_REFTYPE@@PEAX@Z
        241   E2 0009EA50 ?RegisterDispatcherObject@CBaseInput@@QEAAJPEAVIRegisterInputDispatcherObjects@@@Z
        242   E3 000D1690 ?RegisterInputDispatcherObjects@IOCPDispatcher@@UEAAJPEAXIPEAUInputDispatcherObject@@@Z
        243   E4 000D02F0 ?RegisterInputDispatcherObjects@LegacyInputDispatcher@@UEAAJPEAXIPEAUInputDispatcherObject@@@Z
        244   E5 0009E360 ?RegisterThreadDispatcherObject@IOCPDispatcher@@QEAAXPEAX@Z
        245   E6 0009E2D0 ?RegisterThreadDispatcherObjectWithCallback@IOCPDispatcher@@QEAAXPEAXP6AX0@Z0@Z
        246   E7 000C5C00 ?Release@CompositionObject@@QEBA_JXZ
        247   E8 000DAFF0 ?ReleaseAllWaiters@EnterLeaveCritMitRitHandOffHazard@@SAXXZ
        248   E9 000C9BA0 ?RemoveLSurf@SURFACE@@QEAAXPEAVSFMLOGICALSURFACE@@@Z
        249   EA 000AE850 ?ResolveHandle@CompositionInputObject@@KAJPEAXKDPEAPEAU1@@Z
        250   EB 0004F290 ?RestoreAttributes@DC@@QEAAXPEAU_DC_ATTR@@@Z
        251   EC 000598F0 ?SaveAttributes@DC@@QEAAHPEAU_DC_ATTR@@@Z
        252   ED 001FD0C0 ?SearchAndSetKbdTbl@@YAXPEAUDEVICEINFO@@KK@Z
        253   EE 000DA440 ?SetAccessEnabledFlag@@YAXXZ
        254   EF 00181E90 ?SetCachedDpiScaleValue@DC@@QEAAXJ@Z
        255   F0 001F3A00 ?SetClip@CCursorClip@@QEAAXUtagRECT@@@Z
        256   F1 001F4030 ?SetDimmedState@CInputGlobals@@QEAAX_N@Z
        257   F2 001F4080 ?SetDisplayOnState@CInputGlobals@@QEAAX_N@Z
        258   F3 000C7790 ?SetForegroundPriority@ForegroundBoost@@YAXPEBUtagTHREADINFO@@W4ForegroundPriorityClass@1@@Z
        259   F4 000D38F0 ?SetGlobalCursorLevel@@YAXH@Z
        260   F5 001F40D0 ?SetGlobalTickCount@CInputGlobals@@QEAAXW4INPUT_GLOBALS_TICK_COUNT@@_K@Z
        261   F6 001ED260 ?SetPointerBarrelVisualization@CTouchProcessor@@QEAAXGH@Z
        262   F7 001ED670 ?SetPointerFrameTargetWindows@CTouchProcessor@@QEAAHPEAUtagTHREADINFO@@_KIPEAH@Z
        263   F8 001EE9B0 ?SetPointerInfoNodeFlagFromEdition@CTouchProcessor@@QEAAHKGI@Z
        264   F9 001EF180 ?SetPointerVisualization@CTouchProcessor@@QEAAHGHPEAHH@Z
        265   FA 000C8410 ?SetPtiLastWoken@CInputGlobals@@QEAAXPEAUtagTHREADINFO@@_N@Z
        266   FB 000CA310 ?SetSystemVisual@CHwndTargetProp@@QEAAJW4_HwndTargetType@@PEAUCompositionObject@@@Z
        267   FC 001F9940 ?SetTimer@CAccessibilityTimer@@SA?AW4_ACCESSIBILITY_TIMERS@@KP6AXPEAUtagWND@@I_K_J@ZH@Z
        268   FD 001D1310 ?StopFilterKeysTimers@@YAXXZ
        269   FE 000E8600 ?SuppressDeadzoneContactsInFrameAndGetNext@CTouchProcessor@@QEAAPEAXPEAXAEBUDEVICE_OUTPUT_CONFIG@@AEBUtagPOINTER_INFO@@@Z
        270   FF 001EFCF0 ?ThreadHasPrimaryCaptureExternal@CTouchProcessor@@QEAAHQEAUtagTHREADINFO@@G@Z
        271  100 000CE460 ?TmpGetDeviceList@CBaseInput@@QEAAPEAUDEVICEINFO@@XZ
        272  101 000CE880 ?TmpGetLock@CBaseInput@@QEAAAEAUCInpPushLock@@XZ
        273  102 001D1360 ?ToggleKeys@@YAHPEAUtagKE@@KH@Z
        274  103 000C2F30 ?TransferTokens@SfmTokenArray@@QEAAJPEAV1@@Z
        275  104 00160850 ?TransformPoint@@YA?AUTransformedPoint@@AEBU1@AEBUtagINPUT_TRANSFORM@@@Z
        276  105 001D14E0 ?TurnOffMouseKeys@@YAXXZ
        277  106 000D4520 ?UnLock@CInpLockGuard@@QEAAXAEAVCRefUnRefPointerMsgId@@@Z
        278  107 00016670 ?UnLockExclusive@CInpPushLock@@QEAAXXZ
        279  108 000969B0 ?UnLockExclusive@tagDomLock@@QEBAXXZ
        280  109 00016670 ?UnLockExclusive@tagObjLock@@QEBAXXZ
        281  10A 000CC490 ?UnLockShared@CInpPushLock@@QEAAXXZ
        282  10B 000969B0 ?UnLockShared@tagDomLock@@QEBAXXZ
        283  10C 00160D40 ?UnLockShared@tagObjLock@@QEBAXXZ
        284  10D 001F5290 ?UnLockWithoutGuard@CInpLockGuard@@QEAAXXZ
        285  10E 001F52C0 ?UnRefPointerMsgIdAndLockExclusive@CInpLockGuard@@QEAAXAEAVCRefUnRefPointerMsgId@@AEAVCDomainLockAssistant@@@Z
        286  10F 00181E60 ?Unlock@CMutex@OPM@@QEAAXXZ
        287  110 000ADFA0 ?UnlockAndRelease@CInputSink@@QEBA_NXZ
        288  111 000C18B0 ?UnlockFocusWnd@tagQ@@QEAAPEAUtagWND@@XZ
        289  112 001F0830 ?UnreferenceFrameExternal@CTouchProcessor@@QEAAXPEBUCPointerInputFrame@@@Z
        290  113 001F0A60 ?UnreferenceMsgDataExternal@CTouchProcessor@@QEAAX_KW4tagPOINTERMSGDATA_REFTYPE@@PEAX@Z
        291  114 001F0D20 ?UnreferenceUndispatchedFrame@CTouchProcessor@@QEAAXPEAU_LIST_ENTRY@@@Z
        292  115 00025EE0 ?UpdateCurrent@CTopologyManager@@SAXXZ
        293  116 00009E90 ?UpdateGlobalTickCount@CInputGlobals@@QEAA_NW4INPUT_GLOBALS_TICK_COUNT@@@Z
        294  117 0001BAF0 ?UpdateInputGlobals@CInputGlobals@@QEAA_N_KW4_LINP_SOURCE@@GKK@Z
        295  118 00014600 ?UpdateKeyboardLEDs@CKeyboardSensor@@QEAAXXZ
        296  119 0001A2C0 ?UpdateLastInputTime@CInputGlobals@@QEAAX_KW4_LINP_SOURCE@@@Z
        297  11A 001F1EB0 ?UpdatePointerInfoTarget@CTouchProcessor@@QEAAH_KUtagINPUTDEST@@HHPEAUtagPOINT@@2@Z
        298  11B 00076CF0 ?UpdateProcessPriorityForSpinning@ForegroundBoost@@YAXPEAUtagTHREADINFO@@@Z
        299  11C 00092920 ?UpdateThreadPointerList@CTouchProcessor@@QEAAXPEAUtagTHREADINPUTPOINTERLIST@@G@Z
        300  11D 0004BBE0 ?UpdateUserRgn@RGNOBJ@@QEAAXXZ
        301  11E 000DB960 ?Wait@IOCPDispatcher@@QEAAJPEAT_LARGE_INTEGER@@EPEAU_FILE_IO_COMPLETION_INFORMATION@@@Z
        302  11F 00014360 ?WaitAndDispatch@LegacyInputDispatcher@@QEAAJXZ
        303  120 001F5920 ?WaitForGuard@CInpLockGuard@@QEAAJXZ
        304  121 001F49C0 ?WaitForMessagesOrCustomInputEventsAndDispatch@LegacyInputDispatcher@@QEAAJXZ
        305  122 001F4130 ?WasLastInputInjected@CInputGlobals@@QEBA_NXZ
        306  123 001F4190 ?WasLastInputJournalling@CInputGlobals@@QEBA_NXZ
        308  124 002B0AE8 ?_spfnInputHitTestCallback@CSpatialProcessor@@2P6AHPEAU_InputHitTestRequest@@PEAU_InputHitTestResult@@@ZEA
        309  125 001817A0 ?bAddIcmDIB@BRUSH@@QEAAHPEAXPEAUHBITMAP__@@@Z
        310  126 00182600 ?bAllClosed@EPATHOBJ@@QEAAHXZ
        311  127 000412E0 ?bAllowShareAccess@PDEVOBJ@@QEAAHXZ
        312  128 00182630 ?bAppend@EPATHOBJ@@QEAAHPEAV1@PEAU_POINTFIX@@@Z
        313  129 0004FB30 ?bCleanDC@XDCOBJ@@QEAAHH@Z
        314  12A 000DD9F0 ?bClone@EPATHOBJ@@QEAAHAEAV1@@Z
        315  12B 00093600 ?bCloseFigure@EPATHOBJ@@QEAAHXZ
        316  12C 0005E8D0 ?bCompute@DC@@QEAAHXZ
        317  12D 00182180 ?bComputeUnits@EXFORMOBJ@@QEAAHJPEAVPOINTFL@@PEAVEFLOAT@@1@Z
        319  12E 00043CC0 ?bCopy@RGNOBJ@@QEAAHAEAV1@@Z
        320  12F 000469A0 ?bCopy@RGNOBJAPI@@QEAAHAEAVRGNOBJ@@@Z
        321  130 000DCDD0 ?bCreate@RGNOBJ@@QEAAHAEAVEPATHOBJ@@PEAVEXFORMOBJ@@@Z
        322  131 00075400 ?bCreateDIB@SURFMEM@@QEAAHPEAU_DEVBITMAPINFO@@PEAX1K1_KHHHH@Z
        323  132 00074010 ?bCreatePalette@PALMEMOBJ@@QEAAHKKPEBKKKKKH@Z
        324  133 0003A180 ?bDeleteRGNOBJAPI@RGNOBJAPI@@QEAAHXZ
        325  134 0005F6E0 ?bDeleteSurface@SURFACE@@QEAAHW4_CLEANUPTYPE@@H@Z
        326  135 000D1760 ?bEnum@EPATHOBJ@@QEAAHPEAU_PATHDATA@@@Z
        327  136 000415C0 ?bEqual@RGNOBJ@@QEAAHAEAV1@@Z
        328  137 00095A10 ?bEqualExceptTranslations@EXFORMOBJ@@QEAAHPEAVMATRIX@@@Z
        329  138 000C1E50 ?bExpand@RGNOBJ@@QEAAHK@Z
        330  139 000AB9B0 ?bFlatten@EPATHOBJ@@QEAAHXZ
        331  13A 000D5EF0 ?bIncludeSprites@SURFACE@@SAHXZ
        332  13B 000ABEA0 ?bInit@BEZIER32@@QEAAHPEAU_POINTFIX@@PEAU_RECTFX@@@Z
        333  13C 000AFEF0 ?bInside@RGNOBJ@@QEAAHPEAU_POINTL@@@Z
        334  13D 000A8350 ?bInside@RGNOBJ@@QEAAHPEAU_RECTL@@@Z
        335  13E 000D55B0 ?bIntersect@@YAHPEBU_RECTL@@0PEAU1@@Z
        336  13F 00041610 ?bInverse@EXFORMOBJ@@QEAAHAEAVMATRIX@@@Z
        337  140 00183D30 ?bIsLocked@W32PIDLOCK@@QEAA_NXZ
        338  141 0005DD30 ?bLock@DEVLOCKOBJ@@QEAAHAEAVXDCOBJ@@H@Z
        339  142 000DD460 ?bMakeInfoDC@DC@@QEAAHH@Z
        340  143 000CF5E0 ?bMakeSurface@PDEVOBJ@@QEAAHPEAUHSURF__@@@Z
        341  144 00092430 ?bMap@SURFREFVIEW@@QEAAHPEAU_SURFOBJ@@@Z
        342  145 000496E0 ?bMerge@RGNOBJ@@QEAAHAEAV1@0E@Z
        343  146 00093640 ?bMoveTo@EPATHOBJ@@QEAAHPEAVEXFORMOBJ@@PEAU_POINTL@@@Z
        344  147 00046730 ?bMultiply@EXFORMOBJ@@QEAAHPEAVMATRIX@@0K@Z
        345  148 000ABC10 ?bNext@BEZIER32@@QEAAHPEAU_POINTFIX@@@Z
        346  149 001859E0 ?bNext@BEZIER64@@QEAAHPEAU_POINTFIX@@@Z
        347  14A 000422F0 ?bOffset@RGNOBJ@@QEAAHPEAU_POINTL@@@Z
        348  14B 000934E0 ?bPolyBezierTo@EPATHOBJ@@QEAAHPEAVEXFORMOBJ@@PEAU_POINTL@@K@Z
        349  14C 000936B0 ?bPolyLineTo@EPATHOBJ@@QEAAHPEAVEXFORMOBJ@@PEAU_POINTL@@K@Z
        350  14D 00059130 ?bSetDefaultRegion@DC@@QEAAHXZ
        352  14E 00044190 ?bSwap@RGNOBJAPI@@QEAAHPEAVRGNOBJ@@@Z
        353  14F 002B0464 ?bTouchInputAllowed@RawInputManagerObject@@2HA
        354  150 00092C80 ?bUnMap@SURFACE@@QEAAHPEAXPEAVDC@@@Z
        355  151 000AB420 ?bUnMap@SURFREFVIEW@@QEAAHXZ
        356  152 000AB310 ?bUnMapImmediate@SURFREFVIEW@@QEAAHXZ
        357  153 000976D0 ?bValid@CHMRefHwndByHandle@@QEBA_NXZ
        358  154 001823F0 ?bXform@EXFORMOBJ@@QEAAHPEAU_POINTFIX@@PEAU_POINTL@@_K@Z
        359  155 000AD0E0 ?bXform@EXFORMOBJ@@QEAAHPEAU_POINTL@@0_K@Z
        360  156 00182460 ?bXform@EXFORMOBJ@@QEAAHPEAU_POINTL@@PEAU_POINTFIX@@_K@Z
        361  157 000DE980 ?bXform@EXFORMOBJ@@QEAAHPEAU_VECTORFX@@PEAU_VECTORL@@_K@Z
        362  158 001824D0 ?bXform@EXFORMOBJ@@QEAAHPEAU_VECTORL@@0_K@Z
        363  159 000BA410 ?bXform@EXFORMOBJ@@QEAAHPEAU_VECTORL@@PEAU_VECTORFX@@_K@Z
        364  15A 000437F0 ?bXform@EXFORMOBJ@@QEAAHPEAVVECTORFL@@0_K@Z
        365  15B 00093B50 ?bXformRound@EXFORMOBJ@@QEAAHPEAU_POINTL@@PEAU_POINTFIX@@_K@Z
        366  15C 00086A30 ?cFonts@PDEVOBJ@@QEAAKXZ
        367  15D 000E0610 ?cTotalCurves@EPATHOBJ@@QEAAKXZ
        368  15E 00182750 ?cTotalPts@EPATHOBJ@@QEAAKXZ
        369  15F 000DDE60 ?cjSize@EPATHOBJ@@QEAAKXZ
        370  160 0003F950 ?dwSetLayout@DC@@QEAAKJK@Z
        371  161 002AE198 ?ef16@@3VEFLOAT@@A
        372  162 001871D0 ?eqCross@EFLOAT@@QEAA?AV1@AEBVPOINTFL@@0@Z
        373  163 000C2BB0 ?eqLength@EFLOAT@@QEAA?AV1@AEBVPOINTFL@@@Z
        374  164 002AFD60 ?freelist@PATHALLOC@@0PEAV1@EA
        375  165 002B0548 ?gCookie@@3_KA
        376  166 002B43D0 ?gDomainActiveLock@@3UtagDomLock@@A
        377  167 002B43F0 ?gDomainAsyncKeyStateLock@@3UtagDomLock@@A
        378  168 002B4410 ?gDomainClientLibLock@@3UtagDomLock@@A
        379  169 002B43E8 ?gDomainDesktopLock@@3UtagDomLock@@A
        380  16A 002B10C8 ?gDomainDummyLock@@3UtagDomLock@@A
        381  16B 002B43B0 ?gDomainEtwLock@@3UtagDomLock@@A
        382  16C 002B43D8 ?gDomainForegroundLock@@3UtagDomLock@@A
        383  16D 002B10D0 ?gDomainHandleManagerLock@@3UtagDomLock@@A
        384  16E 002B4428 ?gDomainHookLock@@3UtagDomLock@@A
        385  16F 002B43C8 ?gDomainInputDelegationLock@@3UtagDomLock@@A
        386  170 002B43E0 ?gDomainJobLock@@3UtagDomLock@@A
        387  171 002B4438 ?gDomainPostLock@@3UtagDomLock@@A
        388  172 002B4408 ?gDomainPowerTransitionsStateLock@@3UtagDomLock@@A
        389  173 002B4448 ?gDomainProcessInfoLock@@3UtagDomLock@@A
        390  174 002B4430 ?gDomainQueueLock@@3UtagDomLock@@A
        391  175 002B43C0 ?gDomainQueueMgmtLock@@3UtagDomLock@@A
        392  176 002B43F8 ?gDomainRawInputLock@@3UtagDomLock@@A
        393  177 002B7878 ?gDomainSmsLock@@3UtagDomLock@@A
        394  178 002B4440 ?gDomainThreadInfoLock@@3UtagDomLock@@A
        395  179 002B43B8 ?gDomainThreadRundownLock@@3UtagDomLock@@A
        396  17A 002B4400 ?gDomainTlLock@@3UtagDomLock@@A
        397  17B 002B4420 ?gDomainWinEventLock@@3UtagDomLock@@A
        398  17C 002B4418 ?gDomainWindowLock@@3UtagDomLock@@A
        399  17D 002B3F28 ?gDpiDepDefaultGuiFontsPushLock@@3U_EX_PUSH_LOCK@@A
        400  17E 002B1118 ?gHidCountersLock@@3UtagObjLock@@A
        401  17F 002B40E0 ?gHidRequestTable@RawInputManagerObject@@2UtagHID_REQUEST_TABLE@@A
        402  180 002B10E0 ?gObjDummyLock@@3UtagObjLock@@A
        403  181 002B0550 ?gPreviousProtocolType@@3GA
        404  182 0026A0E8 ?gSmartObjNullRef@@3U_SMARTOBJSTACKREF@@B
        405  183 002A9974 ?gStockBitmapFree@@3JA
        406  184 002B77B0 ?gTPTelemState@Usage@PTPTelemetry@@2UtagTPTELEMSTATE@@A
        407  185 002B0A80 ?gTPTelemTimings@Usage@PTPTelemetry@@2UtagTPTELEMTIMINGS@@A
        408  186 002AFF68 ?gUMPDSecurityLevel@@3W4UMPDSecurityLevel@@A
        409  187 002B10F8 ?gValidLockListEntryPushLock@@3U_EX_PUSH_LOCK@@A
        410  188 002AF9F0 ?gWinLogonRpcHandle@@3PEAXEA
        411  189 002B044C ?g_bLockUpdatesForDwm@@3HA
        412  18A 002B8398 ?g_pDwmState@@3PEAUDwmState@@EA
        413  18B 002AFF60 ?gahDpiDepDefaultGuiFonts@@3PEAPEAXEA
        414  18C 002AFF58 ?gahStockObjects96@@3PEAPEAXEA
        415  18D 002AFF50 ?gahStockObjects@@3PEAPEAXEA
        416  18E 002AEB00 ?gbInDestroyHandleTableObjects@@3HA
        417  18F 002B838C ?gbMultiMonMismatchColor@@3HA
        418  190 002AEA98 ?gcDeferredDestroyTargets@@3KA
        419  191 002AFF3C ?gcMaxHmgr@@3KA
        420  192 002AFF70 ?gcModeChanges@@3KA
        421  193 002AFFA0 ?gcRemoteNextGlobalDeviceNumber@@3KA
        422  194 002A9700 ?gcRemoteNextGlobalPhysicalOutputNumber@@3KA
        423  195 002AEAC8 ?gcSecondaryDestroyTargets@@3KA
        424  196 002AFFC0 ?gdmLogPixels@@3GA
        425  197 002B09A4 ?gdmLogPixelsOfPrimary@@3GA
        426  198 0015F700 ?getDLT@DLT_ACTIVE@@SA?AW4DomainLockType@@XZ
        427  199 000DC370 ?getDLT@DLT_ASYNCKEYSTATE@@SA?AW4DomainLockType@@XZ
        428  19A 000AD0D0 ?getDLT@DLT_CLIENTLIB@@SA?AW4DomainLockType@@XZ
        429  19B 000CA900 ?getDLT@DLT_DESKTOP@@SA?AW4DomainLockType@@XZ
        430  19C 0015F710 ?getDLT@DLT_ETW@@SA?AW4DomainLockType@@XZ
        431  19D 0015F720 ?getDLT@DLT_FOREGROUND@@SA?AW4DomainLockType@@XZ
        432  19E 000B5410 ?getDLT@DLT_HANDLEMANAGER@@SA?AW4DomainLockType@@XZ
        433  19F 000A8EB0 ?getDLT@DLT_HOOK@@SA?AW4DomainLockType@@XZ
        434  1A0 000DC360 ?getDLT@DLT_INPUTDELEGATION@@SA?AW4DomainLockType@@XZ
        435  1A1 0015F730 ?getDLT@DLT_JOB@@SA?AW4DomainLockType@@XZ
        436  1A2 000B90B0 ?getDLT@DLT_POST@@SA?AW4DomainLockType@@XZ
        437  1A3 000E8170 ?getDLT@DLT_POWERTRANSITIONSSTATE@@SA?AW4DomainLockType@@XZ
        438  1A4 000DC010 ?getDLT@DLT_PROCESSINFO@@SA?AW4DomainLockType@@XZ
        439  1A5 000B85A0 ?getDLT@DLT_QUEUE@@SA?AW4DomainLockType@@XZ
        440  1A6 0015F740 ?getDLT@DLT_QUEUEMGMT@@SA?AW4DomainLockType@@XZ
        441  1A7 0015F750 ?getDLT@DLT_RAWINPUT@@SA?AW4DomainLockType@@XZ
        442  1A8 000B4AE0 ?getDLT@DLT_THREADINFO@@SA?AW4DomainLockType@@XZ
        443  1A9 000E8180 ?getDLT@DLT_THREADLOCK@@SA?AW4DomainLockType@@XZ
        444  1AA 0015F760 ?getDLT@DLT_THREADRUNDOWN@@SA?AW4DomainLockType@@XZ
        445  1AB 0015F770 ?getDLT@DLT_WINDOW@@SA?AW4DomainLockType@@XZ
        446  1AC 000AFFC0 ?getDLT@DLT_WINEVENT@@SA?AW4DomainLockType@@XZ
        447  1AD 002B83A0 ?gfDwmDesktopOverlaysEnabled@@3HA
        448  1AE 002B83A4 ?gfDwmOverlayTestMode@@3HA
        449  1AF 002B0910 ?giSpriteUniqueness@@3KA
        450  1B0 002B4B0C ?giVisRgnUniqueness@@3KA
        451  1B1 002B4B08 ?giVisRgnUniquenessStable@@3KA
        452  1B2 002AE2C0 ?gmxIdentity_LToL@@3VMATRIX@@A
        453  1B3 002B4AF0 ?gpCachedDbrush@@3PEAVRBRUSH@@EA
        454  1B4 002B4488 ?gpCachedEngbrush@@3PEAVRBRUSH@@EA
        455  1B5 002AFA20 ?gpEventPowerRequest@@3PEAU_KEVENT@@EA
        456  1B6 002AFFA8 ?gpGraphicsDeviceList@@3PEAUtagGRAPHICS_DEVICE@@EA
        457  1B7 002B0940 ?gpHandleManager@@3PEAVGdiHandleManager@@EA
        458  1B8 002AFF98 ?gpLocalGraphicsDeviceList@@3PEAUtagGRAPHICS_DEVICE@@EA
        459  1B9 002B83C0 ?gpPFTPrivate@@3PEAVPFT@@EA
        460  1BA 002AFB88 ?gpPenNull@@3PEAVPEN@@EA
        461  1BB 002B4AF8 ?gpRGBXlate@@3PEAEEA
        462  1BC 002B0F80 ?gpRemoteGraphicsDeviceList@@3PEAUtagGRAPHICS_DEVICE@@EA
        463  1BD 002B0F78 ?gpRemoteGraphicsDeviceListLast@@3PEAUtagGRAPHICS_DEVICE@@EA
        464  1BE 002A7C68 ?gpSfmState@@3PEAUSfmState@@EA
        465  1BF 002AED88 ?gpStackRefLookAside@@3PEAXEA
        466  1C0 002AFFD0 ?gpTypeIsolation@@3PEAPEAEEA
        467  1C1 002B0538 ?gpUserTypeIsolation@@3PEAPEAEEA
        468  1C2 002AFB80 ?gpbrBackground@@3PEAVBRUSH@@EA
        469  1C3 002B3718 ?gpbrNull@@3PEAVBRUSH@@EA
        470  1C4 002AFB90 ?gpbrText@@3PEAVBRUSH@@EA
        471  1C5 002B0950 ?gpentHmgr@@3PEAU_ENTRY@@EA
        472  1C6 002A7C60 ?gpeqErrorLow@@3PEA_JEA
        473  1C7 002AEAC0 ?gphePrimaryDestroyTarget@@3PEAU_HANDLEENTRY@@EA
        474  1C8 002AFF78 ?gpldevDrivers@@3PEAU_LDEV@@EA
        475  1C9 002B0938 ?gppalRGB@@3PEAVPALETTE@@EA
        476  1CA 002B08F8 ?gppdevList@@3PEAVPDEV@@EA
        477  1CB 002B1100 ?gpsiLock@@3UtagObjLock@@A
        478  1CC 00181890 ?hFindIcmDIB@BRUSH@@QEAAPEAUHBITMAP__@@PEAX@Z
        479  1CD 002B83C8 ?hForePID@@3PEAU_W32PROCESS@@EA
        480  1CE 002B83D0 ?hForePalette@@3PEAUHPALETTE__@@EA
        481  1CF 000DD790 ?hpath@DC@@QEAAPEAUHPATH__@@PEAU2@@Z
        482  1D0 002AFD58 ?hsemFreelist@PATHALLOC@@0PEAUHSEMAPHORE__@@EA
        483  1D1 000455F0 ?iCombine@DC@@QEAAJPEAU_RECTL@@J@Z
        484  1D2 001854D0 ?iCombine@DC@@QEAAJPEAVEXFORMOBJ@@PEAU_RECTL@@J@Z
        485  1D3 00043AF0 ?iCombine@RGNOBJ@@QEAAJAEAV1@0J@Z
        486  1D4 00061060 ?iCombine@RGNOBJAPI@@QEAAJAEAVRGNOBJ@@0J@Z
        487  1D5 000D4590 ?isOwned@CInpLockGuard@@QEAAHXZ
        488  1D6 002A9910 ?logDefaultPal@@3U_PAL_LOGPALETTE@@A
        489  1D7 0003C960 ?pAdapterLuid@PDEVOBJ@@QEAAPEAU_LUID@@XZ
        490  1D8 001833A0 ?pRenderAdapterLuid@PDEVOBJ@@QEAAPEAU_LUID@@XZ
        491  1D9 002AFD90 ?pdibDefault@SURFACE@@2PEAV1@EA
        492  1DA 002B0918 ?ppalDefault@@3PEAVPALETTE@@EA
        493  1DB 002B0930 ?ppalDefaultSurface8bpp@@3PEAVPALETTE@@EA
        494  1DC 002B0920 ?ppalMono@@3PEAVPALETTE@@EA
        495  1DD 002AFD78 ?prgnDefault@@3PEAVREGION@@EA
        496  1DE 002A7D30 ?pvDispatchTable@@3PAPEAXA
        497  1DF 000ACF40 ?rpwnd@CHMRefHwndByHandle@@QEBAPEAUtagWND@@XZ
        498  1E0 002B8084 ?s_atom@CHwndTargetProp@@2GA
        499  1E1 002B0560 ?s_pLookaside@ThreadLockedPerfRegion@InputTraceLogging@@0PEAXEA
        500  1E2 002B0908 ?s_pSCANLookAsideList@RGNMEMOBJ@@2PEAXEA
        501  1E3 002B0558 ?s_userCritLoggingEnabled@Perf@InputTraceLogging@@0_NA
        502  1E4 00183570 ?sizeSave@RGNOBJ@@QEAAKXZ
        503  1E5 002AE340 ?tSize@SURFACE@@0_KA
        504  1E6 00032C10 ?ulDispatchGFPEFunction@XEPALOBJ@@QEAAKW4GFPE_FUNCTION_ID@@K@Z
        505  1E7 000DD6B0 ?ulGetNearestFromPalentryNoExactMatchFirst@XEPALOBJ@@QEAAKUtagPALETTEENTRY@@@Z
        506  1E8 000911C0 ?ulIndexToRGB@XEPALOBJ@@QEAAKK@Z
        507  1E9 002B83D8 ?ulTableIndex@@3KA
        508  1EA 002AFD70 ?ulUniqueREGION@REGION@@0KA
        509  1EB 002A9970 ?ulXlatePalUnique@@3KA
        510  1EC 000D8B10 ?vClearIncludeSprites@SURFACE@@SAXXZ
        511  1ED 00042D80 ?vCloseAllFigures@EPATHOBJ@@QEAAXXZ
        512  1EE 00046520 ?vComputeAccelFlags@EXFORMOBJ@@QEAAXK@Z
        513  1EF 00074560 ?vComputeCallTables@XEPALOBJ@@QEAAXXZ
        514  1F0 00049660 ?vCopy@RGNOBJ@@QEAAXAEAV1@@Z
        515  1F1 00042840 ?vCreate@RGNMEMOBJ@@QEAAXAEAVEPATHOBJ@@KPEAU_RECTL@@@Z
        516  1F2 00034670 ?vDelete@EBRUSHOBJ@@QEAAXXZ
        517  1F3 00047A60 ?vDeleteREGION@REGION@@QEAAXXZ
        518  1F4 00092830 ?vDeleteRGNOBJ@RGNOBJ@@QEAAXXZ
        519  1F5 00089730 ?vDestroyScanLookAsideList@RGNMEMOBJ@@SAXXZ
        520  1F6 000346A0 ?vDisableSurface@PDEVOBJ@@QEAAXW4_CLEANUPTYPE@@E@Z
        521  1F7 00096C30 ?vDownload@RGNOBJ@@QEAAXPEAX@Z
        522  1F8 000418A0 ?vFreeBlocks@EPATHOBJ@@QEAAXXZ
        524  1F9 00032D70 ?vFreeOrCacheRBrush@RBRUSH@@QEAAXW4RBTYPE@@@Z
        525  1FA 00182550 ?vGetCoefficient@EXFORMOBJ@@QEAAXPEAU_FD_XFORM@@@Z
        526  1FB 00043700 ?vGetCoefficient@EXFORMOBJ@@QEAAXPEAU_XFORML@@@Z
        527  1FC 000CA1A0 ?vGetCoefficient@EXFORMOBJ@@QEAAXPEAUtagFLOATOBJ_XFORM@@@Z
        528  1FD 000B1210 ?vGetSubRect@RGNOBJ@@QEBAXPEAU_RECTL@@@Z
        529  1FE 00185F40 ?vInit@BEZIER64@@QEAAXPEAU_POINTFIX@@PEAU_RECTFX@@PEB_J@Z
        530  1FF 00045410 ?vInit@EXFORMOBJ@@QEAAXAEAVXDCOBJ@@KH@Z
        531  200 00032700 ?vInitBrush@EBRUSHOBJ@@QEAAXPEAVDC@@PEAVBRUSH@@VXEPALOBJ@@2PEAVSURFACE@@H@Z
        532  201 00040A70 ?vLock@NEEDGRELOCK@@QEAAXAEAVPDEVOBJ@@@Z
        533  202 00041250 ?vLock@NEEDGRELOCK@@QEAAXAEAVXDCOBJ@@@Z
        534  203 0003C6E0 ?vLockNoDrawing@DEVLOCKOBJ@@QEAAXAEAVXDCOBJ@@@Z
        535  204 000973D0 ?vLockSingleThread@W32PIDLOCK@@QEAAXXZ
        536  205 00035A20 ?vMakeNoXlate@XEPALOBJ@@QEAAXXZ
        537  206 000ACE60 ?vOffset@EPATHOBJ@@QEAAXAEAVEPOINTL@@@Z
        538  207 00043A90 ?vOrder@EXFORMOBJ@@QEBAXAEAU_RECTL@@@Z
        539  208 00093260 ?vPopThreadGuardedObject@RGNMEMOBJ@@QEAAXXZ
        540  209 00061210 ?vPushThreadGuardedObject@RGNMEMOBJ@@QEAAXXZ
        541  20A 000976E0 ?vReferencePdev@PDEVOBJ@@QEAAXXZ
        542  20B 000DCC10 ?vRelease@UMPDOBJ@@SAXPEAV1@H@Z
        543  20C 00096E10 ?vReleaseRao@DC@@QEAAXXZ
        544  20D 000BB960 ?vRemoveTranslation@EXFORMOBJ@@QEAAXXZ
        545  20E 00183690 ?vScale@RGNOBJ@@QEAAXVPOINTFL@@@Z
        546  20F 0004BE10 ?vSet@RGNOBJ@@QEAAXPEAU_RECTL@@@Z
        547  210 00048380 ?vSet@RGNOBJ@@QEAAXXZ
        548  211 000D8B40 ?vSetIncludeSprites@SURFACE@@SAXXZ
        549  212 000972E0 ?vSetRendering@DC@@QEAAXXZ
        550  213 00060C40 ?vSetup@XCLIPOBJ@@QEAAXPEAVREGION@@AEAVERECTL@@H@Z
        551  214 00047CF0 ?vSwap@RGNOBJ@@QEAAXPEAV1@@Z
        552  215 0002D690 ?vSync@PDEVOBJ@@QEAAXPEAU_SURFOBJ@@PEAU_RECTL@@K@Z
        553  216 00042C90 ?vTighten@RGNOBJ@@QEAAXXZ
        554  217 000417A0 ?vUnlock@EPATHOBJ@@QEAAXXZ
        555  218 000B5CE0 ?vUnlock@NEEDGRELOCK@@QEAAXXZ
        556  219 000A8200 ?vUnlockSingleThread@W32PIDLOCK@@QEAAXXZ
        557  21A 00075330 ?vUnrefPalette@XEPALOBJ@@QEAAXXZ
        558  21B 00047100 ?vUnreferencePdev@PDEVOBJ@@QEAAXW4_CLEANUPTYPE@@@Z
        559  21C 000AB8D0 ?vUpdateScaledRegions@DC@@QEAAXXZ
        560  21D 00045D80 ?vUpdateWtoDXform@DC@@QEAAXXZ
        561  21E 00055330 ?vUpdate_VisRect@DC@@QEAAXPEAVREGION@@@Z
        562  21F 002B3F60 ?xlateTable@@3PAU_XLATETABLE@@A
        563  220 002AFFE0 ?xloIdent@@3VXLATE256@@A
        564  221 001D1530 ?xxxAccessTimeOutTimer@@YAXPEAUtagWND@@I_K_J@Z
        565  222 001D1760 ?xxxMKButtonClick@@YAHG@Z
        566  223 001D17A0 ?xxxMKButtonDoubleClick@@YAHG@Z
        567  224 001D17C0 ?xxxMKButtonSetState@@YAHG@Z
        568  225 001D1850 ?xxxMKMouseMove@@YAHG@Z
        569  226 001D24D0 ?xxxMKToggleMouseKeys@@YAHG@Z
        570  227 001D25D0 ?xxxStickyKeys@@YAHPEAUtagKE@@KH@Z
        571  228 001D2A90 ?xxxTurnOffStickyKeys@@YAXXZ
        572  229 001D2AF0 ?xxxTwoKeysDown@@YAHH@Z
        573  22A 001D2B70 ?xxxUnlatchStickyKeys@@YAXXZ
        574  22B 001D2BE0 ?xxxUpdateModifierState@@YAXHH@Z
        575  22C 000C9A20 AccessCheckObject
        576  22D 000B65B0 AccessPTPEnabledStatus
        577  22E 00088D20 AcquireCriticalSectionAndCheckState
        578  22F 000871A0 AcquireCriticalSectionCheckStateAndUpdateGraphicsDeviceList
        579  230 001FFF80 AddEdgePalmRejectionZone
        580  231 0009E050 AddThreadWakeEventDispatcherToIOCP
        581  232 000BB4B0 AddW32TlsData
        582  233 00041F80 AllocAce
        583  234 000424F0 AllocFreeTmpBuffer
        584  235 0006BC70 AllocQueue
        585  236 000922F0 AllocThreadBufferWithTag
        586  237 0006F520 AllocateObject
        587  238 00041A80 AllocateWindowManagerSid
        588  239 000DAB80 ApplyGatheredKeyboardDeviceCount
        589  23A 0009B9F0 ApplySecurityAttributesToWinsta
        590  23B 0006B840 AssociateKernelIocpWcp
        591  23C 000D4800 BroadcastSettingsUpdateToAllContainers
        592  23D 000D5EB0 CSTPush
        593  23E 001632D0 CSTRemove
        594  23F 000E0960 CallMonitor
        595  240 00070C50 CanHitTestInDwm
        596  241 00200630 CancelCapturedMipOverride
        597  242 0004E9A0 CaptureAndValidateUserModeDpiAwarenessContext
         53  243 000DE680 CaptureDEVMODEW
         54  244 000DE010 CaptureDriverInfo2W
        598  245 000688C0 CaptureLogicalCursorPosToQMouseMove
        599  246 000CB380 ChangeAcquireResourceType
        600  247 00097410 CheckAccess
        601  248 00255AA0 CheckAndProcessSurfaceComplete
        602  249 00200660 CheckCapability
        603  24A 000CF360 CheckDesktopPolicy
        604  24B 00163390 CheckDesktopPolicyChange
        605  24C 0000A760 CheckDwmProcessSecurityIdentifier
        606  24D 002006C0 CheckIntegrityAccessToCapture
        607  24E 00200720 ChildProcessRootSynthesizedMouseInput
        608  24F 00073140 CitDesktopSwitch
        609  250 000C5870 CitGetMonitorInfo
        610  251 00258AF0 CitLastInputUpdate
        611  252 00258CB0 CitModerncoreShutdown
        612  253 00024A80 CitProcessForegroundChange
        613  254 000D9460 CitSessionConnectChange
        614  255 00077690 CitSetInfo
        615  256 000BBC90 CitUserChange
        616  257 000AFA10 CleanupInputDelegation
        617  258 000A2820 CleanupLogonProcess
        618  259 0000C280 CleanupPowerRequestList
        619  25A 000D8620 CleanupRemoteHandles
        620  25B 000A0600 CleanupSensorExplicitly
        621  25C 00076800 ClearAppStarting
        622  25D 000C5DC0 ClearKeyboardToggleStates
        623  25E 000DAF90 ClearLogicalCursorPos
        624  25F 00072550 CoalesceInputSourceMouseMoves
        625  260 0009BD20 CommitReadOnlyMemory
        626  261 00027DF0 CreateCacheDC
        627  262 000D1240 CreateDesktopObObject
        628  263 00027DD0 CreateEmptyRgn
        629  264 00027D80 CreateEmptyRgnPublic
        630  265 000C6E40 CreateGlobalAtomTable
        631  266 0009B8D0 CreateKernelEvent
        632  267 0009FE70 CreateKernelIocp
        633  268 000D1610 CreateKernelIocpWcp
        634  269 00013360 CreateKernelSemaphore
        635  26A 00160E30 CreateKernelTimer
        636  26B 000383C0 CreateMonitorRegionForDpi
        637  26C 000B75E0 CreateProfileUserName
         65  26D 000ACAC0 CreateRegion
         66  26E 00183EF0 CreateRegionFromRect
        638  26F 00042FA0 CreateSecurityDescriptor
        639  270 00229BB0 CreateSharedSystemVisualBitmapObject
        640  271 000D3550 CreateSharedSystemVisualObject
        641  272 002B1168 CsrApiPort
        642  273 000708D0 DCompHitTest
        643  274 00229BF0 DCompositionCreateSynchronizationObject
        644  275 000D7E10 DCompositionDwmInitialize
        645  276 000AFCD0 DCompositionNotifyCompositionTokenPresent
        646  277 000BAA70 DCompositionNotifyPresent
        647  278 000806B0 DCompositionProcessCallout
        648  279 0009F200 DCompositionSessionInitialize
        649  27A 000AFC10 DCompositionShouldDeferToken
        650  27B 000C2C50 DCompositionThreadCallout
        651  27C 000537E0 DEC_SHARE_REF_CNT
         68  27D 0004F860 DEC_SHARE_REF_CNT_LAZY0
         69  27E 00054D50 DEC_SHARE_REF_CNT_LAZY_DEL_LOGFONT
        652  27F 00001470 DeferSysPeekMsg
        653  280 00043A70 DeleteMaybeSpecialRgn
        654  281 00020790 DeleteProperties
        655  282 000AFF80 DereferenceDwmApiPort
        656  283 000AFF80 DereferenceDwmProcess
        657  284 0026C928 DesktopMapping
        658  285 000B5B80 DestroyCacheDC
        659  286 0000C200 DestroyMonitorDCs
        660  287 00016440 DeviceTypeToRimInputType
        661  288 000D0C50 DisableDelegation
         80  289 0015E5E0 DispBrokerAsyncRefreshOrientation
         81  28A 0015E620 DispBrokerAsyncRotationLockToggleKey
         82  28B 00086A70 DispBrokerAsyncSessionSwitched
        662  28C 000DC010 DllUnload
        663  28D 002008B0 DoAccel
        664  28E 000A48D0 DrvBuildDevmodeList
        665  28F 00086FD0 DrvCleanupOneGraphicsDevice
        666  290 00087220 DrvCloseGraphicsDevices
        667  291 000DFC40 DrvCreatePhysicalMonitorObjects
        668  292 00031030 DrvDisableMDEV
        669  293 000DB400 DrvDisplayConfigGetDeviceInfo
        670  294 0018B560 DrvDisplayConfigGetScaleFactorOverrides
        671  295 0018B690 DrvDisplayConfigSetDeviceInfo
        672  296 0018BBC0 DrvDisplayConfigSetScaleFactorOverride
        673  297 000CD3B0 DrvDxgkDisplayOnOff
        674  298 0018BE40 DrvDxgkGetMonitorDeviceObject
        675  299 000D27E0 DrvDxgkLogCodePointPacket
        676  29A 0018BE60 DrvDxgkPollDisplayChildren
        677  29B 0018BE90 DrvDxgkUpgradeLegacyDpiSettings
        678  29C 0018C130 DrvDxgkWriteDiagEntry
        679  29D 00036C80 DrvEnumDisplayDevices
        680  29E 0003BAA0 DrvEnumDisplaySettings
        681  29F 000E50A0 DrvEscapeRemoteDrivers
        682  2A0 0003F870 DrvGetDeviceFromName
        683  2A1 0003AB40 DrvGetDisplayConfigBufferSizes
        684  2A2 000308F0 DrvGetDisplayDriverNames
        685  2A3 0003F230 DrvGetHDEV
        686  2A4 00019CF0 DrvGetHdevName
        687  2A5 000DB420 DrvGetLogPixels
        688  2A6 0018C460 DrvGetMonitorOrientation
        689  2A7 000D4FB0 DrvGetSuggestedPhysicalMonitorArraySize
        690  2A8 0003C890 DrvGetWDDMAdapterInfo
        691  2A9 000D7AE0 DrvInitializeDxgkrnlDpiCache
        692  2AA 000DA210 DrvIsNotUsingGraphicsDevice
        693  2AB 000DAED0 DrvIsSourceInHardwareClone
        694  2AC 00026D10 DrvIsUniformSpaceMapping
        695  2AD 0002CA40 DrvLogDiagDisplayChange
        696  2AE 0008A070 DrvNotifySessionStateChange
        697  2AF 000E4F00 DrvPixelSpaceToUniformSpacePoint
        698  2B0 0003AC00 DrvQueryDisplayConfig
        699  2B1 0002C9F0 DrvQueryMDEVPowerState
        700  2B2 000E4D30 DrvSessionHasAnyGraphicsDevice
        701  2B3 0002B3A0 DrvSetDisplayConfig
        702  2B4 00086660 DrvSetGraphicsDevices
        703  2B5 000E4B90 DrvSetMDEVPowerState
        704  2B6 000E10C0 DrvSetMonitorPowerState
        705  2B7 00026C80 DrvUniformSpaceToPixelSpacePoint
        706  2B8 00087290 DrvUpdateGraphicsDeviceList
        707  2B9 0018D7F0 DwmSyncFlushAndWaitForBatch
        708  2BA 0003CDF0 DxLddmFindProcessEntry
        709  2BB 0000ACD0 DxgkEngNotifyDisplayChange
        710  2BC 000DB0E0 EnableMouseAcceleration
        711  2BD 00162F90 EnablePTPDevices
        712  2BE 00026EF0 EnforceColorDependentSettings
        713  2BF 000B0070 Enforced
        714  2C0 000B7840 EngAcquireFastMutex
        715  2C1 0003F830 EngAcquireSemaphore
        716  2C2 000CAB30 EngAcquireSemaphoreNoWait
        717  2C3 0018E9F0 EngAcquireSemaphoreShared
        718  2C4 000DFA40 EngAcquireSemaphoreSharedNoWait
        719  2C5 000950A0 EngAllocMem
        720  2C6 0018EA30 EngAllocSectionMem
        721  2C7 000D4F80 EngAllocUserMem
        722  2C8 000C1200 EngAssociateSurface
        723  2C9 0018EAF0 EngBugCheckEx
        724  2CA 0008ABC0 EngCombineRgn
        725  2CB 0018F3F0 EngCopyRgn
        726  2CC 000C1310 EngCreateBitmap
        727  2CD 0018F8D0 EngCreateClip
        728  2CE 0018F3B0 EngCreateDeviceBitmap
        729  2CF 000C1270 EngCreateDeviceSurface
        730  2D0 0018EB20 EngCreateFastMutex
        731  2D1 00094FA0 EngCreatePalette
        732  2D2 0008B070 EngCreateRectRgn
        733  2D3 000C12D0 EngCreateRedirectionDeviceBitmap
        734  2D4 000D15F0 EngCreateSemaphore
        735  2D5 0018EB40 EngDebugBreak
        736  2D6 0018EB50 EngDebugPrint
        737  2D7 0018F990 EngDeleteClip
        738  2D8 0018FBD0 EngDeleteDriverObj
        739  2D9 00009AE0 EngDeleteFastMutex
        740  2DA 00035950 EngDeletePalette
        741  2DB 0008AC80 EngDeleteRgn
        742  2DC 0018EBF0 EngDeleteSafeSemaphore
        743  2DD 000D51B0 EngDeleteSemaphore
        744  2DE 00036490 EngDeleteSurface
        745  2DF 0018EC30 EngDeviceIoControl
        746  2E0 0018F470 EngEqualRgn
        747  2E1 0018ECF0 EngExpandStackAndCallout
        748  2E2 00089980 EngFreeMem
        749  2E3 0018ED20 EngFreeSectionMem
        750  2E4 00076960 EngFreeUserMem
        751  2E5 0018ED80 EngGetLastError
        752  2E6 000DC010 EngGetProcessHandle
        753  2E7 0018F520 EngGetRgnBox
        754  2E8 000090E0 EngGetRgnData
        755  2E9 0018EDB0 EngInitializeSafeSemaphore
        756  2EA 0018F580 EngIntersectRgn
        757  2EB 000D9900 EngIsSemaphoreOwned
        758  2EC 000CE4E0 EngIsSemaphoreOwnedByCurrentThread
        759  2ED 000CE500 EngIsSemaphoreSharedByCurrentThread
        760  2EE 0018FCF0 EngLockDriverObj
        761  2EF 00058AF0 EngLockSurface
        762  2F0 0018EE00 EngMapSection
        763  2F1 000C4CD0 EngModifySurface
        764  2F2 00038CF0 EngMulDiv
        765  2F3 0018EF20 EngMultiByteToUnicodeN
        766  2F4 0018F620 EngOffsetRgn
        767  2F5 0018EF50 EngProbeForRead
        768  2F6 0018EFA0 EngQueryPerformanceCounter
        769  2F7 0018EFD0 EngQueryPerformanceFrequency
        770  2F8 0018EFF0 EngQuerySystemAttribute
        771  2F9 000D3250 EngQueryW32kCddInterface
        772  2FA 0018F690 EngRectInRgn
        773  2FB 000B7860 EngReleaseFastMutex
        774  2FC 00097160 EngReleaseSemaphore
        775  2FD 0018F100 EngSecureMem
[...]
       2091  829 002AF980 gAccessTimeOut
       2092  82A 002AF958 gAudioDescription
       2093  82B 002AF82B gBounceVk
       2094  82C 002AF018 gCallerKernelAbiVersion
       2095  82D 002B7B3F gCurrentModifierBit
       2096  82E 002AEE98 gDWMCapable
       2097  82F 002AF738 gDriverObjectTimes
       2098  830 002B05E0 gDxgkInterface
       2099  831 002A2100 gDxgkWin32kEngInterface
       2100  832 002AF9B8 gFilterKeys
       2101  833 002B83E4 gGdiInPageErrors
       2102  834 002B4748 gHardErrorHandler
       2103  835 002B7AE0 gHidCounters
       2104  836 002AF968 gHighContrast
       2105  837 002B2AE0 gHighContrastDefaultScheme
       2106  838 002B7BD0 gHighContrastRegistryKey
       2107  839 002B7A70 gInputSinkInfoRetrieval
       2108  83A 002B47E0 gKbdImeStatus
       2109  83B 002AE150 gKeyboardInfo
       2110  83C 002B7B41 gLastVkDown
       2111  83D 002B4819 gLatchBits
       2112  83E 002B4818 gLockBits
       2113  83F 002B7B3C gMKPreviousVk
       2114  840 002A22D0 gMagnContext
       2115  841 002B1170 gMenuState
       2116  842 002B7DF8 gMiPTracking
       2117  843 002AF990 gMouseKeys
       2118  844 002A9270 gNestedWindowLimit
       2119  845 002AE148 gNumLockVk
       2120  846 002AE260 gOemScrollVk
       2121  847 002AE144 gPTPEnabled
       2122  848 002B0E90 gPendingMonitorOnReason
       2123  849 002B1580 gPendingNotifiesList
       2124  84A 002B0F90 gPendingSleepInputReason
       2125  84B 002B7B40 gPhysModifierState
       2126  84C 002B3710 gPlatformRole
       2127  84D 002AF068 gPowerAdaptiveState
       2128  84E 002B0EA0 gPowerDisplayState
       2129  84F 002B0E40 gPowerState
       2130  850 002B0F30 gPowerTransitionsState
       2131  851 002B7B3E gPrevModifierState
       2132  852 002AEF8C gProtocolType
       2133  853 002AEF78 gRemoteClientKeyboardType
       2134  854 002AEF98 gRemoteDisplayDeviceName
       2135  855 002AEFC8 gRemoteKeyboardChannelHandlePair
       2136  856 002AEFE0 gRemoteMouseChannelHandlePair
       2137  857 002AEFFC gRemoteNumMonitors
       2138  858 002AEF90 gRemotePreviousMonitorsCount
       2139  859 002AEFF8 gRemotePrimaryMonitor
       2140  85A 002AF000 gRemoteSessionUseWddm
       2141  85B 002AF008 gRemoteTerminalLuid
       2142  85C 002A22F0 gRemoteWndsMonitorSnapshotHead
       2143  85D 002B1270 gRotationProcessLock
       2144  85E 002B2A00 gSMWP
       2145  85F 002AEE48 gServiceSessionId
       2146  860 002AF0B8 gSessionCreationTime
       2147  861 002A9264 gSessionId
       2148  862 002AEB20 gSharedInfo
       2149  863 002B2BE0 gSoundSentry
       2150  864 002AEEB8 gSqmIsOptedIn
       2151  865 002AEEB0 gSqmSession
       2152  866 002AF9B0 gStickyKeys
       2153  867 002AF829 gStickyKeysLeftShiftCount
       2154  868 002AF828 gStickyKeysRightShiftCount
       2155  869 002B7B3D gTKScanCode
       2156  86A 002B4090 gTLCInfoLock
       2157  86B 002B7940 gTPThresholds
       2158  86C 002B2990 gTermIO
       2159  86D 002B47B0 gThinwireFileObject
       2160  86E 002B1590 gTimerHashTable
       2161  86F 002B1990 gTimerId
       2162  870 002AF978 gToggleKeys
       2163  871 002AEE70 gTouchPadParameters
       2164  872 002AF0B0 gUserPostMessageLimit
       2165  873 002AEAD8 gUserProcessHandleQuota
       2166  874 002B47B8 gVideoFileObject
       2167  875 002AF020 gWinStationInfo
       2168  876 002B12F8 gWinstaRunRef
       2169  877 002A22E0 gWndsMonitorSnapshotHead
       2170  878 002674D8 gZero
       2171  879 002B4840 g_hbmDesktopPattern
       2172  87A 002AF9E8 g_pWallpaperSettings
       2173  87B 002AE3C0 gaefArctan
       2174  87C 002AE390 gaefAxisAngle
       2175  87D 002AE3A8 gaefAxisCoord
       2176  87E 002AE1B0 gaefSin
       2177  87F 002AEDC0 gafAsyncKeyState
       2178  880 002AF710 gafAsyncKeyStateRecentDown
       2179  881 002AF6D0 gafRawKeyState
       2180  882 002AEE58 gafServiceFilterAuditCache
       2181  883 002B4798 gafServiceFilterAuditStackCache
       2182  884 00263F20 gahti
       2183  885 002AF0D0 gaptMouse
       2184  886 002A8F58 gapulCvt_VK
       2185  887 002A8F70 gapulCvt_VK_84
       2186  888 0026C710 gargbInitial
       2187  889 002AB840 gasyscur
       2188  88A 002AF094 gatomFirstPinned
       2189  88B 002B47D8 gatomLastPinned
       2190  88C 002B7B08 gatomMiPFlags
       2191  88D 002B481C gbBlockSendInputResets
       2192  88E 002AEE0C gbCleanedUpResources
       2193  88F 002AEF68 gbClientDoubleClickSupport
       2194  890 002AEF84 gbConnectCompleted
       2195  891 002AEF88 gbConnected
       2196  892 002AE930 gbDBCSCodePage
       2197  893 002B7B28 gbDesktopLocked
       2198  894 002AF0B4 gbDisableAlpha
       2199  895 002B4478 gbDisableLddmSpriteTearDown
       2200  896 002B7AEC gbExitInProgress
       2201  897 002B47D0 gbFirstConnectionDone
       2202  898 002AF010 gbFirstInteractiveSession
       2203  899 002B7AF0 gbFreezeScreenUpdates
       2204  89A 002AE254 gbGDIOn
       2205  89B 002B83E8 gbGUISetup
       2206  89C 002B0964 gbGreSessionCleanup
       2207  89D 002AEAB8 gbInDestroyExclusiveUserCritDeferredUnlockList
       2208  89E 002B4790 gbInMitRitHandOff
       2209  89F 002B7B04 gbInVideoPnpCallout
       2210  8A0 002AE934 gbLockEtw
       2211  8A1 002B0540 gbLockScreenActive
       2212  8A2 002B4670 gbMDEVDisabled
       2213  8A3 002B47A4 gbMIT
       2214  8A4 002AF82A gbMKMouseMode
       2215  8A5 002AF071 gbManualDimTimeOut
       2216  8A6 002B78AC gbMouseInjectionBlockedOnDIT
       2217  8A7 002B47A0 gbNoMoreDITHitTest
       2218  8A8 002AF048 gbNoMorePowerCallouts
       2219  8A9 002AF01C gbNonServiceSession
       2220  8AA 002AEE30 gbOSTestSigningEnabled
       2221  8AB 002B0E94 gbPendingMonitorOn
       2222  8AC 002B0F94 gbPendingSleepInput
       2223  8AD 002AED98 gbPowerCalloutsReady
       2224  8AE 002AF014 gbRemoteFxSession
       2225  8AF 002B78BC gbRootPartition
       2226  8B0 002B1308 gbSnapShotWindowsAndMonitors
       2227  8B1 002AEE60 gbTraceLoggingInitialized
       2228  8B2 002AF070 gbTtmEnabled
       2229  8B3 002B1038 gbUsingDefaultSectionSize
       2230  8B4 002AF04C gbVideoInitialized
       2231  8B5 002AEE88 gcDITLuidHitTestWaiters
       2232  8B6 002B78A8 gcDITMouseInjectionWaiters
       2233  8B7 002B7B00 gcDeferredDestroyTargetsReported
       2234  8B8 002AEAB4 gcInHMDestroyUnlockedObjectWorker
       2235  8B9 002B0554 gcLocalNextGlobalDeviceNumber
       2236  8BA 002AEF20 gcSwitchInProgressWaiters
       2237  8BB 002B4730 gcSysExpunge
       2238  8BC 002AE904 gcTrueTypeFonts
       2239  8BD 002B46B0 gcachedCaptions
       2240  8BE 002AF0C0 gcmsLastTimer
       2241  8BF 002AE16C gdtDblClk
       2242  8C0 002AEE20 gdwDeferWinEvent
       2243  8C1 002AF054 gdwDesktopSectionSize
       2244  8C2 002B05D0 gdwDirectDrawContext
       2245  8C3 002B4700 gdwExtraInstrumentations
       2246  8C4 002B4780 gdwGTERMFlags
       2247  8C5 002AEE08 gdwGuiThreads
       2248  8C6 002AE140 gdwHungAppTimeout
       2249  8C7 002AEAB0 gdwHydraHint
       2250  8C8 002AE264 gdwIMEOpenStatus
       2251  8C9 002AF82C gdwKeyboardAttributes
       2252  8CA 002AEE68 gdwMDAQThreshold
       2253  8CB 002AEE64 gdwMDAQTimeoutDefenseInDepth
       2254  8CC 002B29F8 gdwMITWakeReason
       2255  8CD 002AF050 gdwNOIOSectionSize
       2256  8CE 002A9268 gdwPUDFlags
       2257  8CF 002AE170 gdwPolicyFlags
       2258  8D0 002B7B0C gdwPoolFlags
       2259  8D1 002B1284 gdwServiceFilterAuditCaptureWER
       2260  8D2 002B1288 gdwServiceFilterAuditThrottleMode
       2261  8D3 002B4734 gdwThreadEndSession
       2262  8D4 002B0F70 gdwUpdateKeyboard
       2263  8D5 002B12F4 gdwWaitToKillServiceTimeout
       2264  8D6 002B4820 gfEnableHexNumpad
       2265  8D7 002A926C gfEnableWindowsKey
       2266  8D8 002AF848 gfInNumpadHexInput
       2267  8D9 002B0F98 gfIsFadingInProgress
       2268  8DA 002B7B1C gfKanaToggle
       2269  8DB 002B0E30 gfMonitorPowerInProgress
       2270  8DC 002A9288 gfRecordPnpNotification
       2271  8DD 002B47C0 gfRemotingConsole
       2272  8DE 002AEF70 gfSessionSwitchBlock
       2273  8DF 002B0544 gfSwitchInProgress
       2274  8E0 002B1130 gfade
       2275  8E1 002AE914 gfsCurSignature
       2276  8E2 002B7B18 gfsSASModifiersDown
       2277  8E3 002B1280 gfsSave
       2278  8E4 002AEEC0 ghKbdTblBase
       2279  8E5 002B4808 ghMITEvent
       2280  8E6 002AEFD8 ghRemoteBeepChannel
       2281  8E7 002AEFC0 ghRemoteThinwireChannel
       2282  8E8 002AEFF0 ghRemoteVideoChannel
       2283  8E9 002AF088 ghSMSS
       2284  8EA 002B1310 ghSectionKernelHandleTable
       2285  8EB 002AEAE0 ghSectionShared
       2286  8EC 002B2C18 ghWinstaDirectory
       2287  8ED 002B1368 ghbrBlack
       2288  8EE 002B2AC8 ghbrHungApp
       2289  8EF 002B1370 ghbrWhite
       2290  8F0 002AF7C8 ghdcMem
       2291  8F1 002AF7C0 ghdcMem2
       2292  8F2 002AFD98 ghfmMemory
       2293  8F3 002AF7B8 ghrgnGDC
       2294  8F4 002AF7E0 ghrgnInv0
       2295  8F5 002AF7D8 ghrgnInv1
       2296  8F6 002AF7D0 ghrgnInv2
       2297  8F7 002AF7E8 ghrgnInvalid
       2298  8F8 002AF810 ghrgnInvalidSum
       2299  8F9 002AF7B0 ghrgnSCR
       2300  8FA 002AF7A8 ghrgnSPB1
       2301  8FB 002AF7A0 ghrgnSPB2
       2302  8FC 002AF798 ghrgnSW
       2303  8FD 002AF800 ghrgnSWP1
       2304  8FE 002AF790 ghrgnScrl1
       2305  8FF 002AF788 ghrgnScrl2
       2306  900 002AF770 ghrgnScrlDst
       2307  901 002AF778 ghrgnScrlSrc
       2308  902 002AF768 ghrgnScrlValid
       2309  903 002AF780 ghrgnScrlVis
       2310  904 002AF7F8 ghrgnValid
       2311  905 002AF7F0 ghrgnValidSum
       2312  906 002AF808 ghrgnVisNew
       2313  907 002AE928 ghsemAtmfdInit
       2314  908 002AE918 ghsemCLISERV
       2315  909 002AE970 ghsemDCVisRgn
       2316  90A 002AE998 ghsemDriverMgmt
       2317  90B 002AE948 ghsemDwmState
       2318  90C 002AE9A8 ghsemDynamicModeChange
       2319  90D 002AE920 ghsemFntCache
       2320  90E 002AE968 ghsemGreLock
       2321  90F 002AE960 ghsemHT
       2322  910 002AFF48 ghsemHmgr
       2323  911 002AE980 ghsemMapRot
       2324  912 002AE988 ghsemPalette
       2325  913 002AE9A0 ghsemPublicPFT
       2326  914 002AE940 ghsemRFONTList
       2327  915 002AE990 ghsemSprite
       2328  916 002AE958 ghsemVisRgnPublish
       2329  917 002AE950 ghsemVisRgnUniqueness
       2330  918 002AE938 ghsemWndobj
       2331  919 002B47D4 giDelayedPowerTimeout
       2332  91A 002AF074 giDimTimeOutMs
       2333  91B 002AF07C giPowerOffTimeOutMs
       2334  91C 002AF078 giPowerSessionActivityTimeOutMs
       2335  91D 002B7B58 giScreenSaveTimeOutMs
       2336  91E 002AEAD0 giheCount
       2337  91F 002AEACC giheCountPeak
       2338  920 002AEAD4 giheLast
       2339  921 002B29E8 giosbKbdControl
       2340  922 002AE910 gjCurCharset
       2341  923 002AF730 gklp
       2342  924 002B7B20 gklpBootTime
       2343  925 002B47EC gktp
       2344  926 002B7B38 glMitInGuard
       2345  927 002AE97C glRenderEndDelete
       2346  928 002B1298 gliQpcFreq
       2347  929 002B4800 gnDCECount
       2348  92A 002AF818 gnInUseDCECount
       2349  92B 002AEF6C gnPoSessionSwitchBlockCount
       2350  92C 002B7B24 gnRetryReadInput
       2351  92D 002B47A8 gpClipFormatExceptionList
       2352  92E 002B7AF8 gpConsoleShadowDisplayChangeEvent
       2353  92F 002B0A58 gpCursorClip
       2354  930 002AEE28 gpDispInfo
       2355  931 002B7B50 gpDpiKernelModeMetricsCache
       2356  932 002B7B48 gpDpiKernelModeMetricsMRUNode
       2357  933 002AF9D8 gpEventDiconnectDesktop
       2358  934 002AEEC8 gpEventPnPWainting
       2359  935 002AFF40 gpGdiSharedMemory
       2360  936 002AED68 gpHandleFlagsMutex
       2361  937 002B0490 gpHidInput
       2362  938 002B4AD8 gpHidInterfaceGuid
       2363  939 002B0488 gpIOCPDispatcher
       2364  93A 002B0AD8 gpInputConfig
       2365  93B 002B0478 gpInputExtensibilityCallout
       2366  93C 002B0A60 gpInputGlobals
       2367  93D 002B46A0 gpJobsList
       2368  93E 002AF830 gpKL
       2369  93F 002B0480 gpKSTIOCPDispatcher
       2370  940 002AF838 gpKbdNlsTbl
       2371  941 002AF840 gpKbdTbl
       2372  942 002AEB10 gpKernelHandleTable
       2373  943 002B0498 gpKeyboardSensor
       2374  944 002AFDA8 gpLockShortDelay
       2375  945 002AF9E0 gpMonitorCached
       2376  946 002B4850 gpMonitorMouse
       2377  947 002B04A0 gpMouseSensor
       2378  948 002B47C8 gpRemoteBeepDevice
       2379  949 002AF9D0 gpRemoteSessionOcclusionEvent
       2380  94A 002B4810 gpScancodeMap
       2381  94B 002AEED0 gpThinWireCache
       2382  94C 002B0470 gpTouchProcessor
       2383  94D 002AFA30 gpW32FastMutex
       2384  94E 002AF748 gpWin32kDriverObject
       2385  94F 002B7B10 gpWinEventHooks
       2386  950 002B1200 gpai
       2387  951 002AF058 gpbIgnoreSleepInput
       2388  952 002AF060 gpbInHiberBoot
       2389  953 002B4770 gpbwlList
       2390  954 002AED90 gpdeskRecalcQueueAttach
       2391  955 002AE138 gpdwCPUserPreferencesMask
       2392  956 002AEA90 gpepCSRSS
       2393  957 002AF080 gpepInit
       2394  958 002AEF60 gpevtDesktopDestroyed
       2395  959 002AEF30 gpevtMonitorPowerWaiter
       2396  95A 002AEF58 gpevtPTPOperation
       2397  95B 002AED60 gpevtQueueReadyForCallout
       2398  95C 002AEF38 gpevtRitReadyForCallOut
       2399  95D 002AEF50 gpevtSynthesizedContainerMouseInput
       2400  95E 002AEF48 gpevtVideoInitialized
       2401  95F 002AEF40 gpevtVideoportCallout
       2402  960 002AEE00 gpidLogon
       2403  961 002AED70 gpidLogonUI
       2404  962 002AF098 gpkdiStatic
       2405  963 002B1210 gpopupMenu
       2406  964 002B4720 gppiDManipHook
       2407  965 002AEDA0 gppiFullscreen
       2408  966 002AED78 gppiInputProvider
       2409  967 002AED80 gppiList
       2410  968 002B4718 gppiLockSFW
       2411  969 002B4C88 gppiScreenSaver
       2412  96A 002AEE18 gppiStarting
       2413  96B 002B4728 gppiUserApiHook
       2414  96C 002AEDB0 gpqCursor
       2415  96D 002B4708 gpqForeground
       2416  96E 002AEDB8 gpqForegroundPrev
       2417  96F 002AF750 gpresDitCompositionInputSinkQuery
       2418  970 002AF758 gpresDitMouseInjectionFlush
       2419  971 002AF760 gpresDitTouchInjection
       2420  972 002AEE38 gpresRender
       2421  973 002AEB08 gpresUser
       2422  974 002AEE90 gpsemDITLuidHitTestWaiters
       2423  975 002B78A0 gpsemDITMouseInjectionWaiters
       2424  976 002AEF28 gpsemSwitchInProgressWaiters
       2425  977 002AEAF8 gpsi
       2426  978 002B2AD0 gptCursorAsync
       2427  979 002A9274 gptInd
       2428  97A 002B78B0 gptSSCursor
       2429  97B 002B4778 gptiBlockInput
       2430  97C 002AEAA0 gptiCurrent
       2431  97D 002B4C90 gptiForeground
       2432  97E 002B4738 gptiLockUpdate
       2433  97F 002AF820 gptiManipulationThread
       2434  980 002B7880 gptiModerncoreTimerThread
       2435  981 002B46A8 gptiRit
       2436  982 002B4760 gptiShutdownNotify
       2437  983 002B4740 gptiShutdownWaiter
       2438  984 002AEDA8 gptiTSRequest
       2439  985 002B4758 gptiTasklist
       2440  986 002AEE10 gptmrMaster
       2441  987 002AFAF8 gptmrWD
       2442  988 002AF0A8 gpusMouseVKey
       2443  989 002AEAF0 gpvSharedAlloc
       2444  98A 002AEAE8 gpvSharedBase
       2445  98B 002A9710 gpviCPUserPreferences
       2446  98C 002B47F8 gpvwplHungRedraw
       2447  98D 002B7888 gpwpiFirstWow
       2448  98E 002B4838 gpwtiFirst
       2449  98F 002AEE40 gpxsGlobals
       2450  990 002B4788 grpWinStaList
       2451  991 002B4710 grpdeskIODefault
       2452  992 002B4C80 grpdeskRitInput
       2453  993 002B7890 grpwinstaLogoff
       2454  994 002B29D8 gsmsList
       2455  995 002B7B30 gspdeskShouldBeForeground
       2456  996 002B1278 gspklBaseLayout
       2457  997 002B4450 gspklGlobalActive
       2458  998 002B4768 gspwndInternalCapture
       2459  999 002B1290 gstServiceFilterAuditStackCacheSize
       2460  99A 002AEEE0 gstrBaseWinStationName
       2461  99B 002B2970 gtmrAdjustmentListHead
       2462  99C 002B2980 gtmrListHead
       2463  99D 002B4828 gtmridAccessTimeOut
       2464  99E 002AEEBC guKbdTblSize
       2465  99F 002B7898 guiActivateShellWindow
       2466  9A0 002B7DF4 gulDelayedSwitchAction
       2467  9A1 002AE90C gulFontInformation
       2468  9A2 002B1300 gullUserCritAcquireToken
       2469  9A3 002AE908 gusLanguageID
       2470  9A4 002B7B70 gwMKButtonState
       2471  9A5 002AE268 gwMKCurrentButton
       2472  9A6 002AEE50 gxsSection
       2473  9A7 002B4660 gxsSectionHandle
       2474  9A8 000D8730 hCreateKernelEvent
       2475  9A9 00161060 hCreateKernelTimer
       2476  9AA 0008B4C0 hCreateSolidBrushInternal
       2477  9AB 002AEAA8 hModuleWin
       2478  9AC 002AF0A0 hModuleWinKernel
       2479  9AD 000D1D60 hbmSelectBitmap
       2480  9AE 00057110 hbmSelectBitmapInternal
       2481  9AF 0003FBE0 hdcOpenDCW
       2482  9B0 0003EF40 hdevEnumerate
       2483  9B1 0006C540 isChildPartition
       2484  9B2 000969D0 lNormAngle
       2485  9B3 000A5350 ldevLoadDriver
       2486  9B4 000A5700 ldevLoadImage
       2487  9B5 000A39C0 ldevLoadInternal
       2488  9B6 00031860 ldevUnloadImage
       2489  9B7 00281420 luidSystem
       2490  9B8 00281FCC nCharsets
       2491  9B9 00093ED0 newpathalloc
       2492  9BA 00187370 pProcessDfbSurfaces
       2493  9BB 000319F0 pProcessDfbSurfaces2
       2494  9BC 00031AC0 pProcessDfbSurfacesInternal
       2495  9BD 002A98D0 psTcb
       2496  9BE 00190E70 rgbFromColorref
       2497  9BF 002A2000 s_rgSensorMap
       2498  9C0 002813D0 szCOMPOSITIONINPUTQUEUE_NAME
       2499  9C1 00281408 szMIPFLAGS
       2500  9C2 002671D8 szNull
       2501  9C3 002B1380 szWindowStationDirectory
       2502  9C4 00191020 ulCharsetToCodePage
       2503  9C5 000E1040 ulColorRefToRGB
       2504  9C6 000B1240 ulGetNearestIndexFromColorref
       2505  9C7 00091170 ulIndexToRGB
       2506  9C8 000DCD70 vAdvanceAETEdges
       2507  9C9 000465B0 vConvertXformToMatrix
       2508  9CA 000332A0 vDynamicConvertNewSurfaceDCs
        523  9CB 000E0AF0 vFreeDriverInfo2
       2509  9CC 000CF4C0 vMarkFreeW32Process
       2510  9CD 000CB5B0 vMarkFreeW32Thread
       2511  9CE 00183830 vMatchAPal
       2512  9CF 000DD640 vMoveNewEdges
       2513  9D0 00185960 vRestoreRegion
       2514  9D1 000DD410 vXSortAETEdges
       2515  9D2 000B2C80 xxxActivateKeyboardLayout
       2516  9D3 000B1480 xxxChangeForegroundKeyboardTable
       2517  9D4 000A3310 xxxCreateSystemThreads
       2518  9D5 00164680 xxxDisplayDiagBlackScreenDetected
       2519  9D6 0000A590 xxxDwmControl
       2520  9D7 00038F20 xxxEnumDisplayMonitors
       2521  9D8 000B2D30 xxxInternalActivateKeyboardLayout
       2522  9D9 00073740 xxxInternalToUnicode
       2523  9DA 0001D4E0 xxxKENLSProcs
       2524  9DB 00203470 xxxKeyEvent
       2525  9DC 0001AA80 xxxKeyEventEx
       2526  9DD 00018C80 xxxODI_ColorInit
       2527  9DE 0001A620 xxxProcessKeyEvent
       2528  9DF 0000B150 xxxRemoteConnect
       2529  9E0 0000BDD0 xxxResetDisplayDevice
       2530  9E1 000B1CC0 xxxSafeLoadKeyboardLayoutEx
       2531  9E2 000E2B70 xxxSendWinlogonPowerMessage
       2532  9E3 00073C10 xxxSetProcessInitState
       2533  9E4 0005D130 xxxSystemParametersInfo
       2534  9E5 00073630 xxxToUnicodeEx
       2535  9E6 001FD550 xxxUnloadKeyboardLayout
       2536  9E7 0001AC90 xxxUpdateGlobalsAndSendKeyEvent
       2537  9E8 00018030 xxxUpdatePerUserAccessPackSettings
       2538  9E9 00029E80 xxxUserChangeDisplaySettings
       2539  9EA 0000D130 xxxUserPowerCalloutWorker
       2540  9EB 00069260 xxxUserProcessCallout
       2541  9EC 0000B9A0 xxxUserSetDisplayConfig
       2542  9ED 0006B220 zzzDestroyQueue

  Summary

       19000 .data
       18000 .edata
        6000 .idata
        1000 .kbdfall
       1F000 .pdata
       47000 .rdata
       13000 .reloc
       28000 .rsrc
      25A000 .text
        5000 GFIDS
        6000 INIT
        1000 NONPAGE
        2000 PAGE
