Microsoft (R) COFF/PE Dumper Version 14.29.30137.0
Copyright (C) Microsoft Corporation.  All rights reserved.


Dump of file C:\Windows\WinSxS\wow64_microsoft-windows-cipher_31bf3856ad364e35_10.0.22000.1_none_0daec752de4278a6\cipher.exe

File Type: EXECUTABLE IMAGE

  Image has the following delay load dependencies:

    SHELL32.dll
    edputil.dll

  Section contains the following delay load imports:

    SHELL32.dll
              00000001 Characteristics
              0040936C Address of HMODULE
              0040E000 Import Address Table
              0040824C Import Name Table
              004082A4 Bound Import Name Table
              00000000 Unload Import Name Table
                     0 time date stamp

          00407F94                 Ordinal   190
          00407F84              91 SHChangeNotifySuspendResume
          00407F63                 Ordinal   155

    edputil.dll
              00000001 Characteristics
              00409370 Address of HMODULE
              0040E010 Import Address Table
              0040825C Import Name Table
              004082B4 Bound Import Name Table
              00000000 Unload Import Name Table
                     0 time date stamp

          00407FA4               8 EdpConvertProtectorToExternalId

  Image has the following dependencies:

    ADVAPI32.dll
    KERNEL32.dll
    msvcrt.dll
    ntdll.dll
    RPCRT4.dll
    USER32.dll
    NTDSAPI.dll
    CRYPT32.dll
    bcrypt.dll
    EFSUTIL.dll
    FeClient.dll
    DSROLE.dll

  Section contains the following imports:

    ADVAPI32.dll
                40C000 Import Address Table
                40C38C Import Name Table
                     0 time date stamp
                     0 Index of first forwarder reference

                  10B EncryptFileW
                   DC CryptReleaseContext
                  2A3 RegQueryValueExW
                  1A9 LookupAccountSidW
                  2C8 RemoveUsersFromEncryptedFile
                  296 RegOpenKeyExW
                  261 QueryUsersOnEncryptedFile
                   1C AddUsersToEncryptedFile
                   1D AddUsersToEncryptedFileEx
                   83 ConvertStringSidToSidW
                  250 QueryRecoveryAgentsOnEncryptedFile
                  10C EncryptedFileKeyInfo
                  12D FlushEfsCache
                  132 FreeEncryptionCertificateHashList
                  11A EqualSid
                   C2 CryptAcquireContextW
                  265 RegCloseKey
                  300 SetUserFileEncryptionKey
                  130 FreeEncryptedFileKeyInfo
                   EA DecryptFileW
                   D8 CryptGetUserKey
                   C8 CryptDestroyKey

    KERNEL32.dll
                40C0BC Import Address Table
                40C448 Import Name Table
                     0 time date stamp
                     0 Index of first forwarder reference

                  236 GetDiskFreeSpaceW
                  50F SetConsoleMode
                  127 DeviceIoControl
                  5E0 VirtualAlloc
                  4CF RemoveDirectoryW
                  52B SetErrorMode
                  538 SetFilePointer
                  526 SetEndOfFile
                  2C4 GetProcessHeap
                  337 GetVolumePathNameW
                   D3 CreateFileW
                  252 GetFileAttributesW
                  335 GetVolumeNameForVolumeMountPointW
                  235 GetDiskFreeSpaceExW
                  485 ReadConsoleW
                   8E CloseHandle
                  362 HeapSetInformation
                  21D GetCurrentDirectoryW
                  51F SetCurrentDirectoryW
                  18C FindFirstFileW
                  1EB GetComputerNameW
                  266 GetFullPathNameW
                  5DF VerifyVersionInfoW
                  305 GetTempFileNameW
                  19D FindNextVolumeW
                  64A lstrcmpW
                  23C GetDriveTypeW
                  1AB FlushFileBuffers
                  4DF ResolveDelayLoadedAPI
                  31C GetTickCount
                  2FA GetSystemTimeAsFileTime
                  229 GetCurrentThreadId
                  225 GetCurrentProcessId
                  117 DelayLoadFailureHook
                  461 QueryPerformanceCounter
                  5A6 TerminateProcess
                  224 GetCurrentProcess
                  587 SetUnhandledExceptionFilter
                  5C7 UnhandledExceptionFilter
                  597 Sleep
                  333 GetVolumeInformationW
                  459 QueryDosDeviceW
                   C2 CreateDirectoryW
                  198 FindNextFileW
                  5E3 VirtualFree
                  548 SetLastError
                  1A4 FindVolumeClose
                  192 FindFirstVolumeW
                  25B GetFileType
                  618 WideCharToMultiByte
                  5DB VerSetConditionMask
                  286 GetModuleHandleW
                  3E5 LocalFree
                  2BD GetProcAddress
                  62B WriteConsoleW
                  35A HeapAlloc
                  26E GetLastError
                  1B3 FormatMessageW
                  208 GetConsoleMode
                  62C WriteFile
                  2E3 GetStdHandle
                  656 lstrlenW
                  35E HeapFree
                  181 FindClose

    msvcrt.dll
                40C20C Import Address Table
                40C598 Import Name Table
                     0 time date stamp
                     0 Index of first forwarder reference

                  514 memcpy
                  173 _except_handler4_common
                  140 _controlfp
                   3A ?terminate@@YAXXZ
                  1F3 _initterm
                   ED __setusermatherr
                   D7 __p__fmode
                  12D _cexit
                  17C _exit
                  4B9 exit
                   EB __set_app_type
                   FA __wgetmainargs
                  11A _amsg_exit
                   D2 __p__commode
                   74 _XcptFilter
                  566 towupper
                  422 _wcsnicmp
                  32B _putws
                  4DF getchar
                  51D printf
                  57B wcschr
                  418 _wcsicmp
                  1C6 _get_osfhandle
                  3F7 _vsnwprintf
                   AC __iob_func
                  4C4 fgetws
                  518 memset

    ntdll.dll
                40C27C Import Address Table
                40C608 Import Name Table
                     0 time date stamp
                     0 Index of first forwarder reference

                  500 RtlNtStatusToDosError

    RPCRT4.dll
                40C1D4 Import Address Table
                40C560 Import Name Table
                     0 time date stamp
                     0 Index of first forwarder reference

                  210 RpcStringFreeW
                  219 UuidCreate
                  222 UuidToStringW

    USER32.dll
                40C1E4 Import Address Table
                40C570 Import Name Table
                     0 time date stamp
                     0 Index of first forwarder reference

                  286 MessageBoxW

    NTDSAPI.dll
                40C1C0 Import Address Table
                40C54C Import Name Table
                     0 time date stamp
                     0 Index of first forwarder reference

                    8 DsBindW
                   74 DsUnBindW
                   24 DsFreeNameResultW
                   14 DsCrackNamesW

    CRYPT32.dll
                40C05C Import Address Table
                40C3E8 Import Name Table
                     0 time date stamp
                     0 Index of first forwarder reference

                   47 CertGetEnhancedKeyUsage
                   40 CertFreeCertificateContext
                    4 CertAddCertificateContextToStore
                   2C CertEnumCertificatesInStore
                   C8 CryptQueryObject
                   12 CertCloseStore
                  129 PFXExportCertStoreEx
                   35 CertFindCertificateInStore
                   59 CertOpenStore
                   E4 CryptStringToBinaryW
                   46 CertGetCertificateContextProperty
                   7F CryptBinaryToStringW

    bcrypt.dll
                40C1EC Import Address Table
                40C578 Import Name Table
                     0 time date stamp
                     0 Index of first forwarder reference

                   1F BCryptGenerateSymmetricKey
                    2 BCryptCloseAlgorithmProvider
                   1D BCryptGenRandom
                   27 BCryptOpenAlgorithmProvider
                   21 BCryptGetProperty
                    E BCryptDestroyKey
                   12 BCryptEncrypt

    EFSUTIL.dll
                40C09C Import Address Table
                40C428 Import Name Table
                     0 time date stamp
                     0 Index of first forwarder reference

                    C EfsUtilGetSmartcardProviderName
                    2 EfsUtilCreateSelfSignedCertificate
                    9 EfsUtilGetCurrentUserInformation

    FeClient.dll
                40C0AC Import Address Table
                40C438 Import Name Table
                     0 time date stamp
                     0 Index of first forwarder reference

                   2B EfsClientQueryProtectors
                   27 EfsClientFreeProtectorList
                   28 EfsClientGetEncryptedFileVersion

    DSROLE.dll
                40C090 Import Address Table
                40C41C Import Name Table
                     0 time date stamp
                     0 Index of first forwarder reference

                    1 DsRoleGetPrimaryDomainInformation
                    0 DsRoleFreeMemory

  Summary

        3000 .data
        1000 .didat
        2000 .idata
        1000 .reloc
        1000 .rsrc
        8000 .text
