Microsoft (R) COFF/PE Dumper Version 14.29.30137.0
Copyright (C) Microsoft Corporation.  All rights reserved.


Dump of file C:\Windows\System32\cipher.exe

File Type: EXECUTABLE IMAGE

  Image has the following dependencies:

    ADVAPI32.dll
    KERNEL32.dll
    msvcrt.dll
    ntdll.dll
    RPCRT4.dll
    USER32.dll
    NTDSAPI.dll
    CRYPT32.dll
    bcrypt.dll
    EFSUTIL.dll
    FeClient.dll
    DSROLE.dll

  Image has the following delay load dependencies:

    SHELL32.dll
    edputil.dll

  Section contains the following imports:

    ADVAPI32.dll
             14000A148 Import Address Table
             14000B7A0 Import Name Table
                     0 time date stamp
                     0 Index of first forwarder reference

                         10B EncryptFileW
                          DC CryptReleaseContext
                         2A6 RegQueryValueExW
                         1A9 LookupAccountSidW
                         2CB RemoveUsersFromEncryptedFile
                         299 RegOpenKeyExW
                         264 QueryUsersOnEncryptedFile
                          1C AddUsersToEncryptedFile
                          1D AddUsersToEncryptedFileEx
                          83 ConvertStringSidToSidW
                         253 QueryRecoveryAgentsOnEncryptedFile
                         10C EncryptedFileKeyInfo
                         12D FlushEfsCache
                         132 FreeEncryptionCertificateHashList
                         11A EqualSid
                          C2 CryptAcquireContextW
                         268 RegCloseKey
                         303 SetUserFileEncryptionKey
                         130 FreeEncryptedFileKeyInfo
                          EA DecryptFileW
                          D8 CryptGetUserKey
                          C8 CryptDestroyKey

    KERNEL32.dll
             14000A2C0 Import Address Table
             14000B918 Import Name Table
                     0 time date stamp
                     0 Index of first forwarder reference

                         23D GetDiskFreeSpaceW
                         51F SetConsoleMode
                         12B DeviceIoControl
                         5F1 VirtualAlloc
                         4D3 RemoveDirectoryW
                         53B SetErrorMode
                         548 SetFilePointer
                         536 SetEndOfFile
                         2CB GetProcessHeap
                         340 GetVolumePathNameW
                          D3 CreateFileW
                         259 GetFileAttributesW
                         33E GetVolumeNameForVolumeMountPointW
                         23C GetDiskFreeSpaceExW
                         489 ReadConsoleW
                          8E CloseHandle
                         36B HeapSetInformation
                         223 GetCurrentDirectoryW
                         52F SetCurrentDirectoryW
                         192 FindFirstFileW
                         26D GetFullPathNameW
                         1AA FindVolumeClose
                         5F0 VerifyVersionInfoW
                         30C GetTempFileNameW
                         1A3 FindNextVolumeW
                         65F lstrcmpW
                         243 GetDriveTypeW
                         1B1 FlushFileBuffers
                         323 GetTickCount
                         301 GetSystemTimeAsFileTime
                         22F GetCurrentThreadId
                         22B GetCurrentProcessId
                         464 QueryPerformanceCounter
                         4E3 ResolveDelayLoadedAPI
                         5B6 TerminateProcess
                         22A GetCurrentProcess
                         597 SetUnhandledExceptionFilter
                         5D8 UnhandledExceptionFilter
                         5A7 Sleep
                         33C GetVolumeInformationW
                         45C QueryDosDeviceW
                          C2 CreateDirectoryW
                         19E FindNextFileW
                         5F4 VirtualFree
                         557 SetLastError
                         1F1 GetComputerNameW
                         198 FindFirstVolumeW
                         262 GetFileType
                         629 WideCharToMultiByte
                         5EC VerSetConditionMask
                         28C GetModuleHandleW
                         3E8 LocalFree
                         2C4 GetProcAddress
                         63C WriteConsoleW
                         363 HeapAlloc
                         274 GetLastError
                         1B9 FormatMessageW
                         20E GetConsoleMode
                         63D WriteFile
                         2EA GetStdHandle
                         118 DelayLoadFailureHook
                         66B lstrlenW
                         367 HeapFree
                         187 FindClose

    msvcrt.dll
             14000A560 Import Address Table
             14000BBB8 Import Name Table
                     0 time date stamp
                     0 Index of first forwarder reference

                          DB _commode
                         4CF strcmp
                         4A3 memset
                         49F memcpy
                          34 ?terminate@@YAXXZ
                         130 _fmode
                          5E __C_specific_handler
                         189 _initterm
                          99 __setusermatherr
                          CA _cexit
                         117 _exit
                         43F exit
                          97 __set_app_type
                          A6 __wgetmainargs
                          B7 _amsg_exit
                          5A _XcptFilter
                         4F9 towupper
                         3A1 _wcsnicmp
                         2B0 _putws
                         468 getchar
                         4AA printf
                         50E wcschr
                         397 _wcsicmp
                         15F _get_osfhandle
                         376 _vsnwprintf
                          8A __iob_func
                         44B fgetws
                         50F wcscmp

    ntdll.dll
             14000A648 Import Address Table
             14000BCA0 Import Name Table
                     0 time date stamp
                     0 Index of first forwarder reference

                         2FF RtlCaptureContext
                         515 RtlNtStatusToDosError
                         500 RtlLookupFunctionEntry
                         644 RtlVirtualUnwind

    RPCRT4.dll
             14000A4F0 Import Address Table
             14000BB48 Import Name Table
                     0 time date stamp
                     0 Index of first forwarder reference

                         227 UuidToStringW
                         21E UuidCreate
                         215 RpcStringFreeW

    USER32.dll
             14000A510 Import Address Table
             14000BB68 Import Name Table
                     0 time date stamp
                     0 Index of first forwarder reference

                         28A MessageBoxW

    NTDSAPI.dll
             14000A4C8 Import Address Table
             14000BB20 Import Name Table
                     0 time date stamp
                     0 Index of first forwarder reference

                          24 DsFreeNameResultW
                          74 DsUnBindW
                          14 DsCrackNamesW
                           8 DsBindW

    CRYPT32.dll
             14000A200 Import Address Table
             14000B858 Import Name Table
                     0 time date stamp
                     0 Index of first forwarder reference

                          47 CertGetEnhancedKeyUsage
                          40 CertFreeCertificateContext
                           4 CertAddCertificateContextToStore
                          2C CertEnumCertificatesInStore
                          C5 CryptQueryObject
                          12 CertCloseStore
                         123 PFXExportCertStoreEx
                          35 CertFindCertificateInStore
                          59 CertOpenStore
                          DF CryptStringToBinaryW
                          46 CertGetCertificateContextProperty
                          7D CryptBinaryToStringW

    bcrypt.dll
             14000A520 Import Address Table
             14000BB78 Import Name Table
                     0 time date stamp
                     0 Index of first forwarder reference

                          1F BCryptGenerateSymmetricKey
                           2 BCryptCloseAlgorithmProvider
                          1D BCryptGenRandom
                          27 BCryptOpenAlgorithmProvider
                          21 BCryptGetProperty
                           E BCryptDestroyKey
                          12 BCryptEncrypt

    EFSUTIL.dll
             14000A280 Import Address Table
             14000B8D8 Import Name Table
                     0 time date stamp
                     0 Index of first forwarder reference

                           C EfsUtilGetSmartcardProviderName
                           2 EfsUtilCreateSelfSignedCertificate
                           9 EfsUtilGetCurrentUserInformation

    FeClient.dll
             14000A2A0 Import Address Table
             14000B8F8 Import Name Table
                     0 time date stamp
                     0 Index of first forwarder reference

                          2B EfsClientQueryProtectors
                          27 EfsClientFreeProtectorList
                          28 EfsClientGetEncryptedFileVersion

    DSROLE.dll
             14000A268 Import Address Table
             14000B8C0 Import Name Table
                     0 time date stamp
                     0 Index of first forwarder reference

                           1 DsRoleGetPrimaryDomainInformation
                           0 DsRoleFreeMemory

  Section contains the following delay load imports:

    SHELL32.dll
              00000001 Characteristics
      000000014000D5F0 Address of HMODULE
      0000000140011000 Import Address Table
      000000014000B5F8 Import Name Table
      000000014000B668 Bound Import Name Table
      0000000000000000 Unload Import Name Table
                     0 time date stamp

                                    0000000140001A39       Ordinal   190
                                    0000000140001A27    91 SHChangeNotifySuspendResume
                                    000000014000199C       Ordinal   155

    edputil.dll
              00000001 Characteristics
      000000014000D5F8 Address of HMODULE
      0000000140011020 Import Address Table
      000000014000B618 Import Name Table
      000000014000B688 Bound Import Name Table
      0000000000000000 Unload Import Name Table
                     0 time date stamp

                                    0000000140001A4B     8 EdpConvertProtectorToExternalId

  Summary

        3000 .data
        1000 .didat
        1000 .pdata
        3000 .rdata
        1000 .reloc
        1000 .rsrc
        9000 .text
