Microsoft (R) COFF/PE Dumper Version 14.29.30137.0
Copyright (C) Microsoft Corporation.  All rights reserved.


Dump of file C:\Windows\System32\DDACLSys.dll

File Type: DLL

  Image has the following dependencies:

    msvcrt.dll
    api-ms-win-core-file-l1-1-0.dll
    api-ms-win-core-errorhandling-l1-1-0.dll
    api-ms-win-core-handle-l1-1-0.dll
    api-ms-win-core-sysinfo-l1-1-0.dll
    api-ms-win-security-sddl-l1-1-0.dll
    api-ms-win-core-heap-l2-1-0.dll
    api-ms-win-security-base-l1-1-0.dll
    api-ms-win-core-io-l1-1-0.dll
    api-ms-win-core-registry-l1-1-0.dll
    api-ms-win-core-file-l1-2-0.dll
    api-ms-win-core-libraryloader-l1-2-0.dll
    api-ms-win-core-synch-l1-2-0.dll
    api-ms-win-core-rtlsupport-l1-1-0.dll
    api-ms-win-core-processthreads-l1-1-0.dll
    api-ms-win-core-profile-l1-1-0.dll
    ADVAPI32.dll
    SHLWAPI.dll

  Section contains the following exports for DDACLSys.DLL

    00000000 characteristics
    E8573FB0 time date stamp
        0.00 version
           1 ordinal base
           2 number of functions
           2 number of names

    ordinal hint RVA      name

          1    0 00002F50 DDACLSys_Offline_Specialize
          2    1 00002F80 DDACLSys_Specialize

  Section contains the following imports:

    msvcrt.dll
             180004338 Import Address Table
             180005628 Import Name Table
                     0 time date stamp
                     0 Index of first forwarder reference

                         189 _initterm
                          B7 _amsg_exit
                          5A _XcptFilter
                          C8 _callnewh
                         493 malloc
                         459 free
                         49F memcpy
                         50D wcscat_s
                         512 wcscpy_s
                         397 _wcsicmp
                         370 _vsnprintf
                         376 _vsnwprintf
                          5E __C_specific_handler
                         4A3 memset

    api-ms-win-core-file-l1-1-0.dll
             1800041A0 Import Address Table
             180005490 Import Name Table
                     0 time date stamp
                     0 Index of first forwarder reference

                          2A GetFileAttributesW
                          1D FindVolumeClose
                          26 GetDriveTypeW
                          1C FindNextVolumeW
                          53 SetFilePointer
                          4C SetEndOfFile
                          2D GetFileSizeEx
                          3F GetVolumeInformationW
                          59 WriteFile
                           6 CreateFileW
                          16 FindFirstVolumeW

    api-ms-win-core-errorhandling-l1-1-0.dll
             180004180 Import Address Table
             180005470 Import Name Table
                     0 time date stamp
                     0 Index of first forwarder reference

                          11 UnhandledExceptionFilter
                           5 GetLastError
                           F SetUnhandledExceptionFilter

    api-ms-win-core-handle-l1-1-0.dll
             180004210 Import Address Table
             180005500 Import Name Table
                     0 time date stamp
                     0 Index of first forwarder reference

                           0 CloseHandle

    api-ms-win-core-sysinfo-l1-1-0.dll
             1800042E0 Import Address Table
             1800055D0 Import Name Table
                     0 time date stamp
                     0 Index of first forwarder reference

                          18 GetTickCount
                          14 GetSystemTimeAsFileTime
                           5 GetLocalTime
                          1E GetWindowsDirectoryW

    api-ms-win-security-sddl-l1-1-0.dll
             180004320 Import Address Table
             180005610 Import Name Table
                     0 time date stamp
                     0 Index of first forwarder reference

                           2 ConvertStringSecurityDescriptorToSecurityDescriptorW
                           0 ConvertSecurityDescriptorToStringSecurityDescriptorW

    api-ms-win-core-heap-l2-1-0.dll
             180004220 Import Address Table
             180005510 Import Name Table
                     0 time date stamp
                     0 Index of first forwarder reference

                           3 LocalFree
                           2 LocalAlloc

    api-ms-win-security-base-l1-1-0.dll
             180004308 Import Address Table
             1800055F8 Import Name Table
                     0 time date stamp
                     0 Index of first forwarder reference

                          36 GetSecurityDescriptorControl
                          37 GetSecurityDescriptorDacl

    api-ms-win-core-io-l1-1-0.dll
             180004238 Import Address Table
             180005528 Import Name Table
                     0 time date stamp
                     0 Index of first forwarder reference

                           4 DeviceIoControl

    api-ms-win-core-registry-l1-1-0.dll
             180004290 Import Address Table
             180005580 Import Name Table
                     0 time date stamp
                     0 Index of first forwarder reference

                           0 RegCloseKey
                          23 RegQueryValueExW
                          1E RegOpenKeyExW

    api-ms-win-core-file-l1-2-0.dll
             180004200 Import Address Table
             1800054F0 Import Name Table
                     0 time date stamp
                     0 Index of first forwarder reference

                          42 GetVolumePathNamesForVolumeNameW

    api-ms-win-core-libraryloader-l1-2-0.dll
             180004248 Import Address Table
             180005538 Import Name Table
                     0 time date stamp
                     0 Index of first forwarder reference

                           1 DisableThreadLibraryCalls

    api-ms-win-core-synch-l1-2-0.dll
             1800042D0 Import Address Table
             1800055C0 Import Name Table
                     0 time date stamp
                     0 Index of first forwarder reference

                          2D Sleep

    api-ms-win-core-rtlsupport-l1-1-0.dll
             1800042B0 Import Address Table
             1800055A0 Import Name Table
                     0 time date stamp
                     0 Index of first forwarder reference

                          10 RtlVirtualUnwind
                           A RtlLookupFunctionEntry
                           2 RtlCaptureContext

    api-ms-win-core-processthreads-l1-1-0.dll
             180004258 Import Address Table
             180005548 Import Name Table
                     0 time date stamp
                     0 Index of first forwarder reference

                           C GetCurrentProcess
                          11 GetCurrentThreadId
                           D GetCurrentProcessId
                          4D TerminateProcess

    api-ms-win-core-profile-l1-1-0.dll
             180004280 Import Address Table
             180005570 Import Name Table
                     0 time date stamp
                     0 Index of first forwarder reference

                           0 QueryPerformanceCounter

    ADVAPI32.dll
             180004158 Import Address Table
             180005448 Import Name Table
                     0 time date stamp
                     0 Index of first forwarder reference

                         157 GetNamedSecurityInfoW
                         2ED SetNamedSecurityInfoW

    SHLWAPI.dll
             180004170 Import Address Table
             180005460 Import Name Table
                     0 time date stamp
                     0 Index of first forwarder reference

                             Ordinal   437

  Summary

        1000 .data
        1000 .pdata
        2000 .rdata
        1000 .reloc
        1000 .rsrc
        3000 .text
