Microsoft (R) COFF/PE Dumper Version 14.29.30137.0
Copyright (C) Microsoft Corporation.  All rights reserved.


Dump of file C:\Windows\System32\FwRemoteSvr.dll

File Type: DLL

  Image has the following dependencies:

    fwbase.dll
    msvcrt.dll
    api-ms-win-eventing-classicprovider-l1-1-0.dll
    api-ms-win-core-errorhandling-l1-1-0.dll
    api-ms-win-core-heap-l2-1-0.dll
    RPCRT4.dll
    api-ms-win-core-processthreads-l1-1-0.dll
    api-ms-win-security-base-l1-1-0.dll
    api-ms-win-core-synch-l1-2-0.dll
    api-ms-win-core-profile-l1-1-0.dll
    api-ms-win-core-sysinfo-l1-1-0.dll
    api-ms-win-core-rtlsupport-l1-1-0.dll
    FirewallAPI.dll
    api-ms-win-core-delayload-l1-1-1.dll
    api-ms-win-core-delayload-l1-1-0.dll

  Image has the following delay load dependencies:

    api-ms-win-security-sddl-l1-1-0.dll

  Section contains the following exports for FwRemoteSvr.DLL

    00000000 characteristics
    BC5E083F time date stamp
        0.00 version
           1 ordinal base
           2 number of functions
           2 number of names

    ordinal hint RVA      name

          1    0 00001A30 FwRpcAPIsInitialize
          2    1 00001CB0 FwRpcAPIsShutdown

  Section contains the following imports:

    fwbase.dll
             180013628 Import Address Table
             1800185A8 Import Name Table
                     0 time date stamp
                     0 Index of first forwarder reference

                           4 FwAlloc
                          2A FwFree
                          89 FwSizeTMultiply
                          91 FwStringCopy
                          1C FwCloseHandle
                          3F FwHResultToWindowsError

    msvcrt.dll
             180013660 Import Address Table
             1800185E0 Import Name Table
                     0 time date stamp
                     0 Index of first forwarder reference

                          B7 _amsg_exit
                          5A _XcptFilter
                         459 free
                         493 malloc
                          5E __C_specific_handler
                         189 _initterm

    api-ms-win-eventing-classicprovider-l1-1-0.dll
             180013608 Import Address Table
             180018588 Import Name Table
                     0 time date stamp
                     0 Index of first forwarder reference

                           5 TraceMessage

    api-ms-win-core-errorhandling-l1-1-0.dll
             180013548 Import Address Table
             1800184C8 Import Name Table
                     0 time date stamp
                     0 Index of first forwarder reference

                           F SetUnhandledExceptionFilter
                          11 UnhandledExceptionFilter
                           5 GetLastError

    api-ms-win-core-heap-l2-1-0.dll
             180013568 Import Address Table
             1800184E8 Import Name Table
                     0 time date stamp
                     0 Index of first forwarder reference

                           A LocalFree

    RPCRT4.dll
             180013490 Import Address Table
             180018410 Import Name Table
                     0 time date stamp
                     0 Index of first forwarder reference

                         213 RpcStringBindingParseW
                         18B RpcBindingToStringBindingW
                          25 I_RpcBindingIsClientLocal
                         1E6 RpcServerUnregisterIfEx
                         18D RpcBindingVectorFree
                         198 RpcEpUnregister
                         1CF RpcServerInqBindings
                         1E1 RpcServerRegisterIf3
                         1F7 RpcServerUseProtseqW
                         215 RpcStringFreeW
                         1DE RpcServerRegisterAuthInfoW
                         1D4 RpcServerInqDefaultPrincNameW
                         132 NdrServerCallAll
                         131 NdrServerCall2
                         1CB RpcRevertToSelf
                         1A7 RpcImpersonateClient
                         17A RpcBindingInqAuthClientW
                         196 RpcEpRegisterW

    api-ms-win-core-processthreads-l1-1-0.dll
             180013578 Import Address Table
             1800184F8 Import Name Table
                     0 time date stamp
                     0 Index of first forwarder reference

                          55 TerminateProcess
                           C GetCurrentProcess
                           D GetCurrentProcessId
                          36 OpenThreadToken
                          11 GetCurrentThreadId
                          10 GetCurrentThread

    api-ms-win-security-base-l1-1-0.dll
             180013618 Import Address Table
             180018598 Import Name Table
                     0 time date stamp
                     0 Index of first forwarder reference

                           0 AccessCheck

    api-ms-win-core-synch-l1-2-0.dll
             1800135E0 Import Address Table
             180018560 Import Name Table
                     0 time date stamp
                     0 Index of first forwarder reference

                          2D Sleep

    api-ms-win-core-profile-l1-1-0.dll
             1800135B0 Import Address Table
             180018530 Import Name Table
                     0 time date stamp
                     0 Index of first forwarder reference

                           0 QueryPerformanceCounter

    api-ms-win-core-sysinfo-l1-1-0.dll
             1800135F0 Import Address Table
             180018570 Import Name Table
                     0 time date stamp
                     0 Index of first forwarder reference

                          1A GetTickCount
                          16 GetSystemTimeAsFileTime

    api-ms-win-core-rtlsupport-l1-1-0.dll
             1800135C0 Import Address Table
             180018540 Import Name Table
                     0 time date stamp
                     0 Index of first forwarder reference

                         642 RtlVirtualUnwind
                         2FE RtlCaptureContext
                         4FE RtlLookupFunctionEntry

    FirewallAPI.dll
             180013318 Import Address Table
             180018298 Import Name Table
                     0 time date stamp
                     0 Index of first forwarder reference

                          60 FWRestoreDefaults
                          2B FWEnumFirewallRules
                           9 FWAddFirewallRule
                          24 FWEnumAdapters
                          2D FWEnumNetworks
                          59 FWQueryCryptoSets
                          57 FWQueryAuthenticationSets
                          5C FWQueryMainModeRules
                          58 FWQueryConnectionSecurityRules
                          5A FWQueryFirewallRules
                          2C FWEnumMainModeRules
                          18 FWDeleteAllMainModeRules
                          1F FWDeleteMainModeRule
                          6B FWSetMainModeRule
                           A FWAddMainModeRule
                          21 FWDeletePhase2SAs
                          20 FWDeletePhase1SAs
                          2F FWEnumPhase2SAs
                          2E FWEnumPhase1SAs
                          27 FWEnumCryptoSets
                          16 FWDeleteAllCryptoSets
                          68 FWSetFirewallRule
                          49 FWGetConfig
                          4A FWGetConfig2
                          1E FWDeleteFirewallRule
                          1B FWDeleteCryptoSet
                          65 FWSetConfig
                          30 FWEnumProducts
                          4B FWGetGlobalConfig
                          4C FWGetGlobalConfig2
                          69 FWSetGlobalConfig
                          56 FWOpenPolicyStore
                          17 FWDeleteAllFirewallRules
                           F FWClosePolicyStore
                           5 FWAddConnectionSecurityRule
                          66 FWSetConnectionSecurityRule
                          1A FWDeleteConnectionSecurityRule
                          15 FWDeleteAllConnectionSecurityRules
                          26 FWEnumConnectionSecurityRules
                           4 FWAddAuthenticationSet
                          67 FWSetCryptoSet
                           6 FWAddCryptoSet
                          25 FWEnumAuthenticationSets
                          14 FWDeleteAllAuthenticationSets
                          64 FWSetAuthenticationSet
                          19 FWDeleteAuthenticationSet

    api-ms-win-core-delayload-l1-1-1.dll
             180013538 Import Address Table
             1800184B8 Import Name Table
                     0 time date stamp
                     0 Index of first forwarder reference

                           1 ResolveDelayLoadedAPI

    api-ms-win-core-delayload-l1-1-0.dll
             180013528 Import Address Table
             1800184A8 Import Name Table
                     0 time date stamp
                     0 Index of first forwarder reference

                           0 DelayLoadFailureHook

  Section contains the following delay load imports:

    api-ms-win-security-sddl-l1-1-0.dll
              00000001 Characteristics
      000000018001A600 Address of HMODULE
      000000018001C000 Import Address Table
      0000000180018088 Import Name Table
      00000001800180D0 Bound Import Name Table
      0000000000000000 Unload Import Name Table
                     0 time date stamp

                                    0000000180001976     2 ConvertStringSecurityDescriptorToSecurityDescriptorW

  Summary

        1000 .data
        1000 .didat
        1000 .pdata
        F000 .rdata
        1000 .reloc
        1000 .rsrc
        A000 .text
