Microsoft (R) COFF/PE Dumper Version 14.29.30137.0
Copyright (C) Microsoft Corporation.  All rights reserved.


Dump of file C:\Windows\System32\quser.exe

File Type: EXECUTABLE IMAGE

  Image has the following dependencies:

    WINSTA.dll
    UTILDLL.dll
    USER32.dll
    KERNEL32.dll
    msvcrt.dll

  Section contains the following imports:

    WINSTA.dll
             1400052D0 Import Address Table
             1400060C0 Import Name Table
                     0 time date stamp
                     0 Index of first forwarder reference

                          66 WinStationQueryInformationW
                          31 WinStationFreeMemory
                          2B WinStationEnumerateW
                          5F WinStationOpenServerW

    UTILDLL.dll
             1400052B8 Import Address Table
             1400060A8 Import Name Table
                     0 time date stamp
                     0 Index of first forwarder reference

                           E GetUnknownString
                          1C StrConnectState

    USER32.dll
             1400052A8 Import Address Table
             140006098 Import Name Table
                     0 time date stamp
                     0 Index of first forwarder reference

                         267 LoadStringW

    KERNEL32.dll
             140005148 Import Address Table
             140005F38 Import Name Table
                     0 time date stamp
                     0 Index of first forwarder reference

                         592 SetUnhandledExceptionFilter
                         228 GetCurrentProcess
                         5B1 TerminateProcess
                         5D3 UnhandledExceptionFilter
                         2FF GetSystemTimeAsFileTime
                         210 GetConsoleOutputCP
                         587 SetThreadUILanguage
                         272 GetLastError
                         17A FileTimeToSystemTime
                         349 GlobalAlloc
                         350 GlobalFree
                         369 HeapSetInformation
                         179 FileTimeToLocalFileTime
                         326 GetTimeFormatW
                         624 WideCharToMultiByte
                         233 GetDateFormatW
                         553 SetLastError
                         2E8 GetStdHandle
                         4F4 RtlVirtualUnwind
                         1B7 FormatMessageW
                         3DB LoadLibraryW
                         637 WriteConsoleW
                         28A GetModuleHandleW
                         1BB FreeLibrary
                         260 GetFileType
                         1E7 GetCommandLineW
                         3E1 LocalAlloc
                         3E6 LocalFree
                         5E7 VerSetConditionMask
                         5EB VerifyVersionInfoW
                         190 FindFirstFileW
                         19C FindNextFileW
                         185 FindClose
                         257 GetFileAttributesW
                         4ED RtlLookupFunctionEntry
                         22D GetCurrentThreadId
                         229 GetCurrentProcessId
                         460 QueryPerformanceCounter
                         64A __chkstk
                         4E5 RtlCaptureContext
                         406 MultiByteToWideChar
                         321 GetTickCount
                         5A2 Sleep

    msvcrt.dll
             1400052F8 Import Address Table
             1400060E8 Import Name Table
                     0 time date stamp
                     0 Index of first forwarder reference

                         507 vswprintf_s
                         50E wcschr
                         459 free
                         4FF vfwprintf
                         462 fwprintf
                         493 malloc
                         525 wcstol
                         528 wcstoul
                         3A1 _wcsnicmp
                         480 iswdigit
                         392 _wcsdup
                          5A _XcptFilter
                          B7 _amsg_exit
                          88 __getmainargs
                          97 __set_app_type
                         43F exit
                         117 _exit
                          CA _cexit
                          99 __setusermatherr
                         189 _initterm
                          5E __C_specific_handler
                         130 _fmode
                          DB _commode
                          34 ?terminate@@YAXXZ
                          8A __iob_func
                         344 _ultoa
                         3F7 _wsetlocale
                         4E9 swprintf_s
                         452 fprintf
                         39B _wcslwr
                         512 wcscpy_s
                         4BE setlocale
                         49F memcpy
                         4A1 memmove
                         4A3 memset
                         50D wcscat_s
                         52D wprintf
                         50F wcscmp

  Summary

        2000 .data
        1000 .pdata
        2000 .rdata
        1000 .reloc
        1000 .rsrc
        4000 .text
