Microsoft (R) COFF/PE Dumper Version 14.29.30137.0
Copyright (C) Microsoft Corporation.  All rights reserved.


Dump of file C:\Windows\System32\qwinsta.exe

File Type: EXECUTABLE IMAGE

  Image has the following dependencies:

    WINSTA.dll
    UTILDLL.dll
    USER32.dll
    KERNEL32.dll
    msvcrt.dll

  Section contains the following imports:

    WINSTA.dll
             140006298 Import Address Table
             140007448 Import Name Table
                     0 time date stamp
                     0 Index of first forwarder reference

                          5F WinStationOpenServerW
                          27 WinStationEnumerateContainerSessions
                          2B WinStationEnumerateW
                          31 WinStationFreeMemory
                          5E WinStationOpenServerExW
                          39 WinStationGetAllSessionsEx
                          4D WinStationGetTermSrvCountersValue
                          2F WinStationFreeEXECENVDATAEX
                          66 WinStationQueryInformationW

    UTILDLL.dll
             140006280 Import Address Table
             140007430 Import Name Table
                     0 time date stamp
                     0 Index of first forwarder reference

                          1C StrConnectState
                          1B StrAsyncConnectState

    USER32.dll
             140006270 Import Address Table
             140007420 Import Name Table
                     0 time date stamp
                     0 Index of first forwarder reference

                         267 LoadStringW

    KERNEL32.dll
             140006148 Import Address Table
             1400072F8 Import Name Table
                     0 time date stamp
                     0 Index of first forwarder reference

                         4ED RtlLookupFunctionEntry
                         5D3 UnhandledExceptionFilter
                         4E5 RtlCaptureContext
                         22D GetCurrentThreadId
                         5A2 Sleep
                         592 SetUnhandledExceptionFilter
                         4F4 RtlVirtualUnwind
                         2FF GetSystemTimeAsFileTime
                         228 GetCurrentProcess
                         5B1 TerminateProcess
                         210 GetConsoleOutputCP
                         587 SetThreadUILanguage
                         272 GetLastError
                         369 HeapSetInformation
                         624 WideCharToMultiByte
                         553 SetLastError
                         2E8 GetStdHandle
                         406 MultiByteToWideChar
                         1B7 FormatMessageW
                         3DB LoadLibraryW
                         637 WriteConsoleW
                         28A GetModuleHandleW
                         1BB FreeLibrary
                         260 GetFileType
                         1E7 GetCommandLineW
                         3E1 LocalAlloc
                         3E6 LocalFree
                         5E7 VerSetConditionMask
                         5EB VerifyVersionInfoW
                         190 FindFirstFileW
                         19C FindNextFileW
                         185 FindClose
                         257 GetFileAttributesW
                         460 QueryPerformanceCounter
                         229 GetCurrentProcessId
                         321 GetTickCount

    msvcrt.dll
             1400062E8 Import Address Table
             140007498 Import Name Table
                     0 time date stamp
                     0 Index of first forwarder reference

                         3F7 _wsetlocale
                         344 _ultoa
                         507 vswprintf_s
                         50E wcschr
                         459 free
                         4FF vfwprintf
                         462 fwprintf
                         493 malloc
                         525 wcstol
                         528 wcstoul
                         3A1 _wcsnicmp
                         480 iswdigit
                         392 _wcsdup
                          5A _XcptFilter
                          B7 _amsg_exit
                          88 __getmainargs
                          97 __set_app_type
                         43F exit
                         117 _exit
                          CA _cexit
                          99 __setusermatherr
                         189 _initterm
                          5E __C_specific_handler
                         130 _fmode
                          DB _commode
                          34 ?terminate@@YAXXZ
                         452 fprintf
                         39B _wcslwr
                         50D wcscat_s
                         512 wcscpy_s
                         2E3 _snwprintf_s
                         446 fflush
                         52D wprintf
                          8A __iob_func
                         49F memcpy
                         4A1 memmove
                         4A3 memset
                         4E9 swprintf_s
                         4BE setlocale
                         50F wcscmp

  Summary

        6000 .data
        1000 .pdata
        2000 .rdata
        1000 .reloc
        1000 .rsrc
        5000 .text
