Microsoft (R) COFF/PE Dumper Version 14.29.30137.0
Copyright (C) Microsoft Corporation.  All rights reserved.


Dump of file C:\Windows\System32\wow64base.dll

File Type: DLL

  Image has the following dependencies:

    ntdll.dll
    wow64.dll

  Section contains the following exports for wow64base.dll

    00000000 characteristics
    EA173A9C time date stamp
        0.00 version
           1 ordinal base
           1 number of functions
           1 number of names

    ordinal hint RVA      name

          1    0 00004090 sdwhbase

  Section contains the following imports:

    ntdll.dll
             180004278 Import Address Table
             180004BB8 Import Name Table
                     0 time date stamp
                     0 Index of first forwarder reference

                         8EA __C_specific_handler
                          6D LdrDisableThreadCalloutsForDll
                         27F NtTerminateProcess
                         2FF RtlCaptureContext
                         500 RtlLookupFunctionEntry
                         644 RtlVirtualUnwind
                         60E RtlUnhandledExceptionFilter
                          1A CsrClientCallServer
                          17 CsrCaptureMessageMultiUnicodeStringsInPlace
                          23 DbgPrintEx
                         374 RtlDecodeSystemPointer
                         3B9 RtlEncodeSystemPointer
                          80 LdrGetProcedureAddress
                          14 CsrAllocateCaptureBuffer
                          15 CsrAllocateMessagePointer
                         62C RtlUpcaseUnicodeString
                         343 RtlCopyUnicodeString
                         483 RtlInitUnicodeString
                          1C CsrFreeCaptureBuffer
                          16 CsrCaptureMessageBuffer
                          18 CsrCaptureMessageString
                         354 RtlCreateProcessParametersEx
                         39A RtlDestroyProcessParameters
                         151 NtDeviceIoControlFile
                         2EA RtlAppendUnicodeToString
                         2E9 RtlAppendUnicodeStringToString
                          8A LdrLoadDll
                          67 LdrAddRefDll
                         95D memcpy

    wow64.dll
             180004368 Import Address Table
             180004CA8 Import Name Table
                     0 time date stamp
                     0 Index of first forwarder reference

                           0 RedirectDosPath
                           2 RedirectObjectName
                           1 RedirectDosPathUnicode

  Summary

        1000 .data
        1000 .pdata
        1000 .rdata
        1000 .reloc
        3000 .text
